FoamFile
{
    version     2.0;
    format      ascii;
    class       dictionary;
    object      transportProperties;
}

nu              [0 2 -1 0 0 0 0] 1.5e-05;
Pr              0.71;
rho             [1 -3 0 0 0 0 0] 1.225;
beta            [0 -1 0 0 0 0 0] 0.00333333;
g               [0 1 -2 0 0 0 0] (0 0 -9.81);
T0              [0 0 0 1 0 0 0] 300.5;