FoamFile
{
    format      ascii;
    class       dictionary;
    location    "constant";
    object      transportProperties;
}


viscosityModel  constant;

nu              0.0001;