FoamFile
{
    version     2.0;
    format      ascii;
    class       dictionary;
    object      fvSchemes;
}
// * * * * * * * * * * * * * * * * * * * * * * * * * * * * * * * * * * * * * //

ddtSchemes
{
    default         Euler;
}

gradSchemes
{
    default         Gauss linear;
    grad(p)         Gauss linear;
    grad(U)         Gauss linear;
    grad(h)         Gauss linear;
}

divSchemes
{
    default         Gauss linear;
    div(phi,U)      Gauss linearUpwind grad(U);
    div(phi,h)      Gauss linearUpwind grad(h);
    div(phirb,U)    Gauss linear;
    div(phirb,h)    Gauss linear;
}

laplacianSchemes
{
    default         Gauss linear corrected;
}

interpolationSchemes
{
    default         linear;
}

snGradSchemes
{
    default         corrected;
}

// ************************************************************************* //