FoamFile
{
    version     2.0;
    format      ascii;
    class       dictionary;
    object      blockMeshDict;
}
// * * * * * * * * * * * * * * * * * * * * * * * * * * * * * * * * * * * * * //

convertToMeters 1;

vertices
(
    (0 0 0)
    (1 0 0)
    (1 0.2 0)
    (0 0.2 0)
    (0 0.2 0.1)
    (1 0.2 0.1)
    (1 0.3 0.1)
    (0 0.3 0.1)
);

blocks
(
    hex (0 1 2 3 4 5 6 7) (20 20 10) simpleGrading (1 1 1)
);

edges
();

boundary
(
    inlet
    {
        type patch;
        faces
        (
            (0 3 4 1)
        );
    }

    outlet
    {
        type patch;
        faces
        (
            (2 5 6 3)
        );
    }

    obstacle
    {
        type wall;
        faces
        (
            (4 5 6 7)
        );
    }

    frontAndBack
    {
        type empty;
        faces
        (
            (0 1 2 3)
            (4 7 6 5)
        );
    }
);

mergePatchPairs
();

// ************************************************************************* //