FoamFile
{
    version     2.0;
    format      ascii;
    class       dictionary;
    object      blockMeshDict;
}

// * * * * * * * * * * * * * * * * * * * * * * * * * * * * * * * * * * * * * //

scale   0.001;

vertices
(
    (-50  25  25)
    (-50  25 -25)
    (-50 -75  25)
    (-50 -75 -25)
    (-500 25  25)
    (-500 25 -25)
    (-500 -75  25)
    (-500 -75 -25)
    (25   25  25)
    (25   25 -25)
    (25   -75  25)
    (25   -75 -25)
    (25   0   25)
    (25   0   -25)
);

blocks
(
    hex (0 1 2 3 8 9 10 11) (20 20 20) simpleGrading (1 1 1)
    hex (2 3 6 7 10 11 14 15) (20 20 20) simpleGrading (1 1 1)
    hex (8 9 10 11 12 13 14 15) (20 20 20) simpleGrading (1 1 1)
);

edges
(
);

boundary
(
    inlet
    {
        type patch;
        faces
        (
            (0 8 12 4)
            (1 9 13 5)
        );
    }
    outlet
    {
        type patch;
        faces
        (
            (2 6 14 10)
            (3 7 15 11)
        );
    }
    walls
    {
        type wall;
        faces
        (
            (0 1 9 8)
            (2 3 11 10)
            (4 5 13 12)
            (6 7 15 14)
            (0 2 6 4)
            (1 3 7 5)
            (8 10 14 12)
            (9 11 15 13)
            (0 1 3 2)
            (8 9 11 10)
            (4 5 7 6)
            (12 13 15 14)
            (8 12 13 9)
            (10 14 15 11)
        );
    }
);

mergePatchPairs
(
);

// * * * * * * * * * * * * * * * * * * * * * * * * * * * * * * * * * * * * * //