FoamFile
{
    version     2.0;
    format      ascii;
    class       dictionary;
    object      fvConstraints;
}

// * * * * * * * * * * * * * * * * * * * * * * * * * * * * * * * * * * * * * //

uniformMassFlowRate
{
    type            uniformMassFlowRate;
    active          yes;
    massFlowRate    0.5;
    patches         (inlet);
}

// * * * * * * * * * * * * * * * * * * * * * * * * * * * * * * * * * * * * * //