FoamFile
{
    version     2.0;
    format      ascii;
    class       dictionary;
    object      thermophysicalProperties;
}

thermoType
{
    type            hePsiThermo;
    mixture         pureMixture;
    transport       const;
    thermo          hConst;
    equationOfState perfectGas;
    specie          specie;
    energy          sensibleEnthalpy;
}

mixture
{
    specie
    {
        nMoles          1;
        M               28.97;
        W               0;
        Cp              1005;
        Hf              0;
    }

    thermodynamics
    {
        Hf              0;
        Cp              1005;
        Tlow            200;
        Thigh           2000;
    }

    transport
    {
        mu              1.8e-5;
        Pr              0.71;
    }

    equationOfState
    {
        pRef            101325;
        TRef            288.15;
    }
}