FoamFile
{
    version     2.0;
    format      ascii;
    class       volScalarField;
    object      p;
}
// * * * * * * * * * * * * * * * * * * * * * * * * * * * * * * * * * * * * * //

dimensions      [1 -1 -2 0 0 0 0];

internalField   uniform 0;

boundaryField
{
    inlet
    {
        type            zeroGradient;
    }
    
    outlet
    {
        type            zeroGradient;
    }
    
    top
    {
        type            zeroGradient;
    }
    
    bottom
    {
        type            zeroGradient;
    }
    
    left
    {
        type            zeroGradient;
    }
    
    right
    {
        type            zeroGradient;
    }
    
    obstacle
    {
        type            zeroGradient;
    }
}

// ************************************************************************* //