FoamFile
{
    version     2.0;
    format      ascii;
    class       dictionary;
    object      fvSchemes;
}

// * * * * * * * * * * * * * * * * * * * * * * * * * * * * * * * * * * * * * //

ddtSchemes
{
    default         Euler;
}

gradSchemes
{
    default         Gauss linear;
}

divSchemes
{
    default         none;
    div(phi,U)      Gauss linearUpwind grad(U);
    div(phi,k)      Gauss limitedLinear 1;
    div(phi,omega)  Gauss limitedLinear 1;
    div(phi,epsilon) Gauss limitedLinear 1;
    div(phi,h)      Gauss linearUpwind grad(h);
    div(phi,T)      Gauss linearUpwind grad(T);
    div(phi,e)      Gauss linearUpwind grad(e);
    div(phi,psi)    Gauss linearUpwind grad(psi);
    div(phi,alphat) Gauss limitedLinear 1;
    div(phi,R)      Gauss linearUpwind grad(R);
    div(R)          Gauss linear;
    div(phi,Rho)    Gauss linearUpwind grad(Rho);
    div(phi,U)      Gauss linearUpwind grad(U);
    div(phi,T)      Gauss linearUpwind grad(T);
    div(phi,e)      Gauss linearUpwind grad(e);
    div(phi,psi)    Gauss linearUpwind grad(psi);
    div(phi,omega)  Gauss limitedLinear 1;
    div(phi,k)      Gauss limitedLinear 1;
    div(phi,epsilon) Gauss limitedLinear 1;
    div(phi,alphat) Gauss limitedLinear 1;
    div(phi,R)      Gauss linearUpwind grad(R);
    div(R)          Gauss linear;
    div(phi,Rho)    Gauss linearUpwind grad(Rho);
    div(phi,U)      Gauss linearUpwind grad(U);
    div(phi,T)      Gauss linearUpwind grad(T);
    div(phi,e)      Gauss linearUpwind grad(e);
    div(phi,psi)    Gauss linearUpwind grad(psi);
    div(phi,omega)  Gauss limitedLinear 1;
    div(phi,k)      Gauss limitedLinear 1;
    div(phi,epsilon) Gauss limitedLinear 1;
    div(phi,alphat) Gauss limitedLinear 1;
    div(phi,R)      Gauss linearUpwind grad(R);
    div(R)          Gauss linear;
    div(phi,Rho)    Gauss linearUpwind grad(Rho);
    div(phi,U)      Gauss linearUpwind grad(U);
    div(phi,T)      Gauss linearUpwind grad(T);
    div(phi,e)      Gauss linearUpwind grad(e);
    div(phi,psi)    Gauss linearUpwind grad(psi);
    div(phi,omega)  Gauss limitedLinear 1;
    div(phi,k)      Gauss limitedLinear 1;
    div(phi,epsilon) Gauss limitedLinear 1;
    div(phi,alphat) Gauss limitedLinear 1;
    div(phi,R)      Gauss linearUpwind grad(R);
    div(R)          Gauss linear;
    div(phi,Rho)    Gauss linearUpwind grad(Rho);
    div(phi,U)      Gauss linearUpwind grad(U);
    div(phi,T)      Gauss linearUpwind grad(T);
    div(phi,e)      Gauss linearUpwind grad(e);
    div(phi,psi)    Gauss linearUpwind grad(psi);
    div(phi,omega)  Gauss limitedLinear 1;
    div(phi,k)      Gauss limitedLinear 1;
    div(phi,epsilon) Gauss limitedLinear 1;
    div(phi,alphat) Gauss limitedLinear 1;
    div(phi,R)      Gauss linearUpwind grad(R);
    div(R)          Gauss linear;
    div(phi,Rho)    Gauss linearUpwind grad(Rho);
}

laplacianSchemes
{
    default         Gauss linear corrected;
}

interpolationSchemes
{
    default         linear;
}

snGradSchemes
{
    default         corrected;
}

wallDist
{
    method          meshWave;
}

fluxRequired
{
    default     no;
    p           yes;
}