/*--------------------------------*- C++ -*----------------------------------*\
  =========                 |
  \\      /  F ield         | OpenFOAM: The Open Source CFD Toolbox
   \\    /   O peration     | Website:  https://openfoam.org
    \\  /    A nd           | Version:  10
     \\/     M anipulation  |
\*---------------------------------------------------------------------------*/
FoamFile
{
    format      ascii;
    class       polyBoundaryMesh;
    location    "constant/polyMesh";
    object      boundary;
}
// * * * * * * * * * * * * * * * * * * * * * * * * * * * * * * * * * * * * * //

6
(
    left
    {
        type            wall;
        inGroups        List<word> 1(wall);
        nFaces          200;
        startFace       56800;
    }
    right
    {
        type            wall;
        inGroups        List<word> 1(wall);
        nFaces          200;
        startFace       57000;
    }
    bottom
    {
        type            wall;
        inGroups        List<word> 1(wall);
        nFaces          1000;
        startFace       57200;
    }
    top
    {
        type            wall;
        inGroups        List<word> 1(wall);
        nFaces          1000;
        startFace       58200;
    }
    front
    {
        type            wall;
        inGroups        List<word> 1(wall);
        nFaces          2000;
        startFace       59200;
    }
    back
    {
        type            wall;
        inGroups        List<word> 1(wall);
        nFaces          2000;
        startFace       61200;
    }
)

// ************************************************************************* //
