FoamFile
{
    version     2.0;
    format      ascii;
    class       dictionary;
    object      combustionProperties;
}

// * * * * * * * * * * * * * * * * * * * * * * * * * * * * * * * * * * * * * //

combustionModel    flamelet;

flameletTable
{
    file          "flameletTable.dat";
    lookupTable   "flameletTable";
}

flameletModel
{
    type            flamelet;
    rho             rho;
    T               T;
    p               p;
    Y               Y;
    Z               Z;
    ZVar            Z;
    ZVarName        "Z";
    ZVarScale       1;
    ZVarOffset      0;
    ZVarVar         "mixtureFraction";
    ZVarVarName     "mixtureFraction";
    ZVarVarScale    1;
    ZVarVarOffset   0;
    ZVarVarVar      "mixtureFraction";
    ZVarVarVarName  "mixtureFraction";
    ZVarVarVarScale 1;
    ZVarVarVarOffset 0;
    ZVarVarVarVar   "mixtureFraction";
    ZVarVarVarVarName "mixtureFraction";
    ZVarVarVarVarScale 1;
    ZVarVarVarVarOffset 0;
    ZVarVarVarVarVar "mixtureFraction";
    ZVarVarVarVarVarName "mixtureFraction";
    ZVarVarVarVarVarScale 1;
    ZVarVarVarVarVarOffset 0;
    ZVarVarVarVarVarVar "mixtureFraction";
    ZVarVarVarVarVarVarName "mixtureFraction";
    ZVarVarVarVarVarVarScale 1;
    ZVarVarVarVarVarVarOffset 0;
    ZVarVarVarVarVarVarVar "mixtureFraction";
    ZVarVarVarVarVarVarVarName "mixtureFraction";
    ZVarVarVarVarVarVarVarScale 1;
    ZVarVarVarVarVarVarVarOffset 0;
    ZVarVarVarVarVarVarVarVar "mixtureFraction";
    ZVarVarVarVarVarVarVarVarName "mixtureFraction";
    ZVarVarVarVarVarVarVarVarScale 1;
    ZVarVarVarVarVarVarVarVarOffset 0;
    ZVarVarVarVarVarVarVarVarVar "mixtureFraction";
    ZVarVarVarVarVarVarVarVarVarName "mixtureFraction";
    ZVarVarVarVarVarVarVarVarVarScale 1;
    ZVarVarVarVarVarVarVarVarVarOffset 0;
    ZVarVarVarVarVarVarVarVarVarVar "mixtureFraction";
    ZVarVarVarVarVarVarVarVarVarVarName "mixtureFraction";
    ZVarVarVarVarVarVarVarVarVarVarScale 1;
    ZVarVarVarVarVarVarVarVarVarVarOffset 0;
    ZVarVarVarVarVarVarVarVarVarVarVar "mixtureFraction";
    ZVarVarVarVarVarVarVarVarVarVarVarName "mixtureFraction";
    ZVarVarVarVarVarVarVarVarVarVarVarScale 1;
    ZVarVarVarVarVarVarVarVarVarVarVarOffset 0;
    ZVarVarVarVarVarVarVarVarVarVarVarVar "mixtureFraction";
    ZVarVarVarVarVarVarVarVarVarVarVarVarName "mixtureFraction";
    ZVarVarVarVarVarVarVarVarVarVarVarVarScale 1;
    ZVarVarVarVarVarVarVarVarVarVarVarVarOffset 0;
    ZVarVarVarVarVarVarVarVarVarVarVarVarVar "mixtureFraction";
    ZVarVarVarVarVarVarVarVarVarVarVarVarVarName "mixtureFraction";
    ZVarVarVarVarVarVarVarVarVarVarVarVarVarScale 1;
    ZVarVarVarVarVarVarVarVarVarVarVarVarVarOffset 0;
    ZVarVarVarVarVarVarVarVarVarVarVarVarVarVar "mixtureFraction";
    ZVarVarVarVarVarVarVarVarVarVarVarVarVarVarName "mixtureFraction";
    ZVarVarVarVarVarVarVarVarVarVarVarVarVarVarScale 1;
    ZVarVarVarVarVarVarVarVarVarVarVarVarVarVarOffset 0;
    ZVarVarVarVarVarVarVarVarVarVarVarVarVarVarVar "mixtureFraction";
    ZVarVarVarVarVarVarVarVarVarVarVarVarVarVarVarName "mixtureFraction";
    ZVarVarVarVarVarVarVarVarVarVarVarVarVarVarVarScale 1;
    ZVarVarVarVarVarVarVarVarVarVarVarVarVarVarVarOffset 0;
    ZVarVarVarVarVarVarVarVarVarVarVarVarVarVarVarVar "mixtureFraction";
    ZVarVarVarVarVarVarVarVarVarVarVarVarVarVarVarVarName "mixtureFraction";
    ZVarVarVarVarVarVarVarVarVarVarVarVarVarVarVarVarScale 1;
    ZVarVarVarVarVarVarVarVarVarVarVarVarVarVarVarVarOffset 0;
    ZVarVarVarVarVarVarVarVarVarVarVarVarVarVarVarVarVar "mixtureFraction";
    ZVarVarVarVarVarVarVarVarVarVarVarVarVarVarVarVarVarName "mixtureFraction";
    ZVarVarVarVarVarVarVarVarVarVarVarVarVarVarVarVarVarScale 1;
    ZVarVarVarVarVarVarVarVarVarVarVarVarVarVarVarVarVarOffset 0;
    ZVarVarVarVarVarVarVarVarVarVarVarVarVarVarVarVarVarVar "mixtureFraction";
    ZVarVarVarVarVarVarVarVarVarVarVarVarVarVarVarVarVarVarName "mixtureFraction";
    ZVarVarVarVarVarVarVarVarVarVarVarVarVarVarVarVarVarVarScale 1;
    ZVarVarVarVarVarVarVarVarVarVarVarVarVarVarVarVarVarVarOffset 0;
    ZVarVarVarVarVarVarVarVarVarVarVarVarVarVarVarVarVarVarVar "mixtureFraction";
    ZVarVarVarVarVarVarVarVarVarVarVarVarVarVarVarVarVarVarVarName "mixtureFraction";
    ZVarVarVarVarVarVarVarVarVarVarVarVarVarVarVarVarVarVarVarScale 1;
    ZVarVarVarVarVarVarVarVarVarVarVarVarVarVarVarVarVarVarVarOffset 0;
    ZVarVarVarVarVarVarVarVarVarVarVarVarVarVarVarVarVarVarVarVar "mixtureFraction";
    ZVarVarVarVarVarVarVarVarVarVarVarVarVarVarVarVarVarVarVarVarName "mixtureFraction";
    ZVarVarVarVarVarVarVarVarVarVarVarVarVarVarVarVarVarVarVarVarScale 1;
    ZVarVarVarVarVarVarVarVarVarVarVarVarVarVarVarVarVarVarVarVarOffset 0;
    ZVarVarVarVarVarVarVarVarVarVarVarVarVarVarVarVarVarVarVarVarVar "mixtureFraction";
    ZVarVarVarVarVarVarVarVarVarVarVarVarVarVarVarVarVarVarVarVarVarName "mixtureFraction";
    ZVarVarVarVarVarVarVarVarVarVarVarVarVarVarVarVarVarVarVarVarVarScale 1;
    ZVarVarVarVarVarVarVarVarVarVarVarVarVarVarVarVarVarVarVarVarVarOffset 0;
    ZVarVarVarVarVarVarVarVarVarVarVarVarVarVarVarVarVarVarVarVarVarVar "mixtureFraction";
    ZVarVarVarVarVarVarVarVarVarVarVarVarVarVarVarVarVarVarVarVarVarVarName "mixtureFraction";
    ZVarVarVarVarVarVarVarVarVarVarVarVarVarVarVarVarVarVarVarVarVarVarScale 1;
    ZVarVarVarVarVarVarVarVarVarVarVarVarVarVarVarVarVarVarVarVarVarVarOffset 0;
    ZVarVarVarVarVarVarVarVarVarVarVarVarVarVarVarVarVarVarVarVarVarVarVar "mixtureFraction";
    ZVarVarVarVarVarVarVarVarVarVarVarVarVarVarVarVarVarVarVarVarVarVarVarName "mixtureFraction";
    ZVarVarVarVarVarVarVarVarVarVarVarVarVarVarVarVarVarVarVarVarVarVarVarScale 1;
    ZVarVarVarVarVarVarVarVarVarVarVarVarVarVarVarVarVarVarVarVarVarVarVarOffset 0;
    ZVarVarVarVarVarVarVarVarVarVarVarVarVarVarVarVarVarVarVarVarVarVarVarVar "mixtureFraction";
    ZVarVarVarVarVarVarVarVarVarVarVarVarVarVarVarVarVarVarVarVarVarVarVarVarName "mixtureFraction";
    ZVarVarVarVarVarVarVarVarVarVarVarVarVarVarVarVarVarVarVarVarVarVarVarVarScale 1;
    ZVarVarVarVarVarVarVarVarVarVarVarVarVarVarVarVarVarVarVarVarVarVarVarVarOffset 0;
    ZVarVarVarVarVarVarVarVarVarVarVarVarVarVarVarVarVarVarVarVarVarVarVarVarVar "mixtureFraction";
    ZVarVarVarVarVarVarVarVarVarVarVarVarVarVarVarVarVarVarVarVarVarVarVarVarVarName "mixtureFraction";
    ZVarVarVarVarVarVarVarVarVarVarVarVarVarVarVarVarVarVarVarVarVarVarVarVarVarScale 1;
    ZVarVarVarVarVarVarVarVarVarVarVarVarVarVarVarVarVarVarVarVarVarVarVarVarVarOffset 0;
    ZVarVarVarVarVarVarVarVarVarVarVarVarVarVarVarVarVarVarVarVarVarVarVarVarVarVar "mixtureFraction";
    ZVarVarVarVarVarVarVarVarVarVarVarVarVarVarVarVarVarVarVarVarVarVarVarVarVarVarName "mixtureFraction";
    ZVarVarVarVarVarVarVarVarVarVarVarVarVarVarVarVarVarVarVarVarVarVarVarVarVarVarScale 1;
    ZVarVarVarVarVarVarVarVarVarVarVarVarVarVarVarVarVarVarVarVarVarVarVarVarVarVarOffset 0;
    ZVarVarVarVarVarVarVarVarVarVarVarVarVarVarVarVarVarVarVarVarVarVarVarVarVarVarVar "mixtureFraction";
    ZVarVarVarVarVarVarVarVarVarVarVarVarVarVarVarVarVarVarVarVarVarVarVarVarVarVarVarName "mixtureFraction";
    ZVarVarVarVarVarVarVarVarVarVarVarVarVarVarVarVarVarVarVarVarVarVarVarVarVarVarVarScale 1;
    ZVarVarVarVarVarVarVarVarVarVarVarVarVarVarVarVarVarVarVarVarVarVarVarVarVarVarVarOffset 0;
    ZVarVarVarVarVarVarVarVarVarVarVarVarVarVarVarVarVarVarVarVarVarVarVarVarVarVarVarVar "mixtureFraction";
    ZVarVarVarVarVarVarVarVarVarVarVarVarVarVarVarVarVarVarVarVarVarVarVarVarVarVarVarVarName "mixtureFraction";
    ZVarVarVarVarVarVarVarVarVarVarVarVarVarVarVarVarVarVarVarVarVarVarVarVarVarVarVarVarScale 1;
    ZVarVarVarVarVarVarVarVarVarVarVarVarVarVarVarVarVarVarVarVarVarVarVarVarVarVarVarVarOffset 0;
    ZVarVarVarVarVarVarVarVarVarVarVarVarVarVarVarVarVarVarVarVarVarVarVarVarVarVarVarVarVar "mixtureFraction";
    ZVarVarVarVarVarVarVarVarVarVarVarVarVarVarVarVarVarVarVarVarVarVarVarVarVarVarVarVarVarName "mixtureFraction";
    ZVarVarVarVarVarVarVarVarVarVarVarVarVarVarVarVarVarVarVarVarVarVarVarVarVarVarVarVarVarScale 1;
    ZVarVarVarVarVarVarVarVarVarVarVarVarVarVarVarVarVarVarVarVarVarVarVarVarVarVarVarVarVarOffset 0;
    ZVarVarVarVarVarVarVarVarVarVarVarVarVarVarVarVarVarVarVarVarVarVarVarVarVarVarVarVarVarVar "mixtureFraction";
    ZVarVarVarVarVarVarVarVarVarVarVarVarVarVarVarVarVarVarVarVarVarVarVarVarVarVarVarVarVarVarName "mixtureFraction";
    ZVarVarVarVarVarVarVarVarVarVarVarVarVarVarVarVarVarVarVarVarVarVarVarVarVarVarVarVarVarVarScale 1;
    ZVarVarVarVarVarVarVarVarVarVarVarVarVarVarVarVarVarVarVarVarVarVarVarVarVarVarVarVarVarVarOffset 0;
    ZVarVarVarVarVarVarVarVarVarVarVarVarVarVarVarVarVarVarVarVarVarVarVarVarVarVarVarVarVarVarVar "mixtureFraction";
    ZVarVarVarVarVarVarVarVarVarVarVarVarVarVarVarVarVarVarVarVarVarVarVarVarVarVarVarVarVarVarVarName "mixtureFraction";
    ZVarVarVarVarVarVarVarVarVarVarVarVarVarVarVarVarVarVarVarVarVarVarVarVarVarVarVarVarVarVarVarScale 1;
    ZVarVarVarVarVarVarVarVarVarVarVarVarVarVarVarVarVarVarVarVarVarVarVarVarVarVarVarVarVarVarVarOffset 0;
    ZVarVarVarVarVarVarVarVarVarVarVarVarVarVarVarVarVarVarVarVarVarVarVarVarVarVarVarVarVarVarVarVar "mixtureFraction";
    ZVarVarVarVarVarVarVarVarVarVarVarVarVarVarVarVarVarVarVarVarVarVarVarVarVarVarVarVarVarVarVarVarName "mixtureFraction";
    ZVarVarVarVarVarVarVarVarVarVarVarVarVarVarVarVarVarVarVarVarVarVarVarVarVarVarVarVarVarVarVarVarScale 1;
    ZVarVarVarVarVarVarVarVarVarVarVarVarVarVarVarVarVarVarVarVarVarVarVarVarVarVarVarVarVarVarVarVarOffset 0;
    ZVarVarVarVarVarVarVarVarVarVarVarVarVarVarVarVarVarVarVarVarVarVarVarVarVarVarVarVarVarVarVarVarVar "mixtureFraction";
    ZVarVarVarVarVarVarVarVarVarVarVarVarVarVarVarVarVarVarVarVarVarVarVarVarVarVarVarVarVarVarVarVarVarName "mixtureFraction";
    ZVarVarVarVarVarVarVarVarVarVarVarVarVarVarVarVarVarVarVarVarVarVarVarVarVarVarVarVarVarVarVarVarVarScale 1;
    ZVarVarVarVarVarVarVarVarVarVarVarVarVarVarVarVarVarVarVarVarVarVarVarVarVarVarVarVarVarVarVarVarVarOffset 0;
    ZVarVarVarVarVarVarVarVarVarVarVarVarVarVarVarVarVarVarVarVarVarVarVarVarVarVarVarVarVarVarVarVarVarVar "mixtureFraction";
    ZVarVarVarVarVarVarVarVarVarVarVarVarVarVarVarVarVarVarVarVarVarVarVarVarVarVarVarVarVarVarVarVarVarVarName "mixtureFraction";
    ZVarVarVarVarVarVarVarVarVarVarVarVarVarVarVarVarVarVarVarVarVarVarVarVarVarVarVarVarVarVarVarVarVarVarScale 1;
    ZVarVarVarVarVarVarVarVarVarVarVarVarVarVarVarVarVarVarVarVarVarVarVarVarVarVarVarVarVarVarVarVarVarVarOffset 0;
    ZVarVarVarVarVarVarVarVarVarVarVarVarVarVarVarVarVarVarVarVarVarVarVarVarVarVarVarVarVarVarVarVarVarVarVar "mixtureFraction";
    ZVarVarVarVarVarVarVarVarVarVarVarVarVarVarVarVarVarVarVarVarVarVarVarVarVarVarVarVarVarVarVarVarVarVarVarName "mixtureFraction";
    ZVarVarVarVarVarVarVarVarVarVarVarVarVarVarVarVarVarVarVarVarVarVarVarVarVarVarVarVarVarVarVarVarVarVarVarScale 1;
    ZVarVarVarVarVarVarVarVarVarVarVarVarVarVarVarVarVarVarVarVarVarVarVarVarVarVarVarVarVarVarVarVarVarVarVarOffset 0;
    ZVarVarVarVarVarVarVarVarVarVarVarVarVarVarVarVarVarVarVarVarVarVarVarVarVarVarVarVarVarVarVarVarVarVarVarVar "mixtureFraction";
    ZVarVarVarVarVarVarVarVarVarVarVarVarVarVarVarVarVarVarVarVarVarVarVarVarVarVarVarVarVarVarVarVarVarVarVarVarName "mixtureFraction";
    ZVarVarVarVarVarVarVarVarVarVarVarVarVarVarVarVarVarVarVarVarVarVarVarVarVarVarVarVarVarVarVarVarVarVarVarVarScale 1;
    ZVarVarVarVarVarVarVarVarVarVarVarVarVarVarVarVarVarVarVarVarVarVarVarVarVarVarVarVarVarVarVarVarVarVarVarVarOffset 0;
    ZVarVarVarVarVarVarVarVarVarVarVarVarVarVarVarVarVarVarVarVarVarVarVarVarVarVarVarVarVarVarVarVarVarVarVarVarVar "mixtureFraction";
    ZVarVarVarVarVarVarVarVarVarVarVarVarVarVarVarVarVarVarVarVarVarVarVarVarVarVarVarVarVarVarVarVarVarVarVarVarVarName "mixtureFraction";
    ZVarVarVarVarVarVarVarVarVarVarVarVarVarVarVarVarVarVarVarVarVarVarVarVarVarVarVarVarVarVarVarVarVarVarVarVarVarScale 1;
    ZVarVarVarVarVarVarVarVarVarVarVarVarVarVarVarVarVarVarVarVarVarVarVarVarVarVarVarVarVarVarVarVarVarVarVarVarVarOffset 0;
    ZVarVarVarVarVarVarVarVarVarVarVarVarVarVarVarVarVarVarVarVarVarVarVarVarVarVarVarVarVarVarVarVarVarVarVarVarVarVar "mixtureFraction";
    ZVarVarVarVarVarVarVarVarVarVarVarVarVarVarVarVarVarVarVarVarVarVarVarVarVarVarVarVarVarVarVarVarVarVarVarVarVarVarName "mixtureFraction";
    ZVarVarVarVarVarVarVarVarVarVarVarVarVarVarVarVarVarVarVarVarVarVarVarVarVarVarVarVarVarVarVarVarVarVarVarVarVarVarScale 1;
    ZVarVarVarVarVarVarVarVarVarVarVarVarVarVarVarVarVarVarVarVarVarVarVarVarVarVarVarVarVarVarVarVarVarVarVarVarVarVarOffset 0;
    ZVarVarVarVarVarVarVarVarVarVarVarVarVarVarVarVarVarVarVarVarVarVarVarVarVarVarVarVarVarVarVarVarVarVarVarVarVarVarVar "mixtureFraction";
    ZVarVarVarVarVarVarVarVarVarVarVarVarVarVarVarVarVarVarVarVarVarVarVarVarVarVarVarVarVarVarVarVarVarVarVarVarVarVarVarName "mixtureFraction";
    ZVarVarVarVarVarVarVarVarVarVarVarVarVarVarVarVarVarVarVarVarVarVarVarVarVarVarVarVarVarVarVarVarVarVarVarVarVarVarVarScale 1;
    ZVarVarVarVarVarVarVarVarVarVarVarVarVarVarVarVarVarVarVarVarVarVarVarVarVarVarVarVarVarVarVarVarVarVarVarVarVarVarVarOffset 0;
    ZVarVarVarVarVarVarVarVarVarVarVarVarVarVarVarVarVarVarVarVarVarVarVarVarVarVarVarVarVarVarVarVarVarVarVarVarVarVarVarVar "mixtureFraction";
    ZVarVarVarVarVarVarVarVarVarVarVarVarVarVarVarVarVarVarVarVarVarVarVarVarVarVarVarVarVarVarVarVarVarVarVarVarVarVarVarVarName "mixtureFraction";
    ZVarVarVarVarVarVarVarVarVarVarVarVarVarVarVarVarVarVarVarVarVarVarVarVarVarVarVarVarVarVarVarVarVarVarVarVarVarVarVarVarScale 1;
    ZVarVarVarVarVarVarVarVarVarVarVarVarVarVarVarVarVarVarVarVarVarVarVarVarVarVarVarVarVarVarVarVarVarVarVarVarVarVarVarVarOffset 0;
    ZVarVarVarVarVarVarVarVarVarVarVarVarVarVarVarVarVarVarVarVarVarVarVarVarVarVarVarVarVarVarVarVarVarVarVarVarVarVarVarVarVar "mixtureFraction";
    ZVarVarVarVarVarVarVarVarVarVarVarVarVarVarVarVarVarVarVarVarVarVarVarVarVarVarVarVarVarVarVarVarVarVarVarVarVarVarVarVarVarName "mixtureFraction";
    ZVarVarVarVarVarVarVarVarVarVarVarVarVarVarVarVarVarVarVarVarVarVarVarVarVarVarVarVarVarVarVarVarVarVarVarVarVarVarVarVarVarScale 1;
    ZVarVarVarVarVarVarVarVarVarVarVarVarVarVarVarVarVarVarVarVarVarVarVarVarVarVarVarVarVarVarVarVarVarVarVarVarVarVarVarVarVarOffset 0;
    ZVarVarVarVarVarVarVarVarVarVarVarVarVarVarVarVarVarVarVarVarVarVarVarVarVarVarVarVarVarVarVarVarVarVarVarVarVarVarVarVarVarVar "mixtureFraction";
    ZVarVarVarVarVarVarVarVarVarVarVarVarVarVarVarVarVarVarVarVarVarVarVarVarVarVarVarVarVarVarVarVarVarVarVarVarVarVarVarVarVarVarName "mixtureFraction";
    ZVarVarVarVarVarVarVarVarVarVarVarVarVarVarVarVarVarVarVarVarVarVarVarVarVarVarVarVarVarVarVarVarVarVarVarVarVarVarVarVarVarVarScale 1;
    ZVarVarVarVarVarVarVarVarVarVarVarVarVarVarVarVarVarVarVarVarVarVarVarVarVarVarVarVarVarVarVarVarVarVarVarVarVarVarVarVarVarVarOffset 0;
    ZVarVarVarVarVarVarVarVarVarVarVarVarVarVarVarVarVarVarVarVarVarVarVarVarVarVarVarVarVarVarVarVarVarVarVarVarVarVarVarVarVarVarVar "mixtureFraction";
    ZVarVarVarVarVarVarVarVarVarVarVarVarVarVarVarVarVarVarVarVarVarVarVarVarVarVarVarVarVarVarVarVarVarVarVarVarVarVarVarVarVarVarVarName "mixtureFraction";
    ZVarVarVarVarVarVarVarVarVarVarVarVarVarVarVarVarVarVarVarVarVarVarVarVarVarVarVarVarVarVarVarVarVarVarVarVarVarVarVarVarVarVarVarScale 1;
    ZVarVarVarVarVarVarVarVarVarVarVarVarVarVarVarVarVarVarVarVarVarVarVarVarVarVarVarVarVarVarVarVarVarVarVarVarVarVarVarVarVarVarVarOffset 0;
    ZVarVarVarVarVarVarVarVarVarVarVarVarVarVarVarVarVarVarVarVarVarVarVarVarVarVarVarVarVarVarVarVarVarVarVarVarVarVarVarVarVarVarVarVar "mixtureFraction";
    ZVarVarVarVarVarVarVarVarVarVarVarVarVarVarVarVarVarVarVarVarVarVarVarVarVarVarVarVarVarVarVarVarVarVarVarVarVarVarVarVarVarVarVarVarName "mixtureFraction";
    ZVarVarVarVarVarVarVarVarVarVarVarVarVarVarVarVarVarVarVarVarVarVarVarVarVarVarVarVarVarVarVarVarVarVarVarVarVarVarVarVarVarVarVarVarScale 1;
    ZVarVarVarVarVarVarVarVarVarVarVarVarVarVarVarVarVarVarVarVarVarVarVarVarVarVarVarVarVarVarVarVarVarVarVarVarVarVarVarVarVarVarVarVarOffset 0;
    ZVarVarVarVarVarVarVarVarVarVarVarVarVarVarVarVarVarVarVarVarVarVarVarVarVarVarVarVarVarVarVarVarVarVarVarVarVarVarVarVarVarVarVarVarVar "mixtureFraction";
    ZVarVarVarVarVarVarVarVarVarVarVarVarVarVarVarVarVarVarVarVarVarVarVarVarVarVarVarVarVarVarVarVarVarVarVarVarVarVarVarVarVarVarVarVarVarName "mixtureFraction";
    ZVarVarVarVarVarVarVarVarVarVarVarVarVarVarVarVarVarVarVarVarVarVarVarVarVarVarVarVarVarVarVarVarVarVarVarVarVarVarVarVarVarVarVarVarVarScale 1;
    ZVarVarVarVarVarVarVarVarVarVarVarVarVarVarVarVarVarVarVarVarVarVarVarVarVarVarVarVarVarVarVarVarVarVarVarVarVarVarVarVarVarVarVarVarVarOffset 0;
    ZVarVarVarVarVarVarVarVarVarVarVarVarVarVarVarVarVarVarVarVarVarVarVarVarVarVarVarVarVarVarVarVarVarVarVarVarVarVarVarVarVarVarVarVarVarVar "mixtureFraction";
    ZVarVarVarVarVarVarVarVarVarVarVarVarVarVarVarVarVarVarVarVarVarVarVarVarVarVarVarVarVarVarVarVarVarVarVarVarVarVarVarVarVarVarVarVarVarVarName "mixtureFraction";
    ZVarVarVarVarVarVarVarVarVarVarVarVarVarVarVarVarVarVarVarVarVarVarVarVarVarVarVarVarVarVarVarVarVarVarVarVarVarVarVarVarVarVarVarVarVarVarScale 1;
    ZVarVarVarVarVarVarVarVarVarVarVarVarVarVarVarVarVarVarVarVarVarVarVarVarVarVarVarVarVarVarVarVarVarVarVarVarVarVarVarVarVarVarVarVarVarVarOffset 0;
    ZVarVarVarVarVarVarVarVarVarVarVarVarVarVarVarVarVarVarVarVarVarVarVarVarVarVarVarVarVarVarVarVarVarVarVarVarVarVarVarVarVarVarVarVarVarVarVar "mixtureFraction";
    ZVarVarVarVarVarVarVarVarVarVarVarVarVarVarVarVarVarVarVarVarVarVarVarVarVarVarVarVarVarVarVarVarVarVarVarVarVarVarVarVarVarVarVarVarVarVarVarName "mixtureFraction";
    ZVarVarVarVarVarVarVarVarVarVarVarVarVarVarVarVarVarVarVarVarVarVarVarVarVarVarVarVarVarVarVarVarVarVarVarVarVarVarVarVarVarVarVarVarVarVarVarScale 1;
    ZVarVarVarVarVarVarVarVarVarVarVarVarVarVarVarVarVarVarVarVarVarVarVarVarVarVarVarVarVarVarVarVarVarVarVarVarVarVarVarVarVarVarVarVarVarVarVarOffset 0;
    ZVarVarVarVarVarVarVarVarVarVarVarVarVarVarVarVarVarVarVarVarVarVarVarVarVarVarVarVarVarVarVarVarVarVarVarVarVarVarVarVarVarVarVarVarVarVarVarVar "mixtureFraction";
    ZVarVarVarVarVarVarVarVarVarVarVarVarVarVarVarVarVarVarVarVarVarVarVarVarVarVarVarVarVarVarVarVarVarVarVarVarVarVarVarVarVarVarVarVarVarVarVarVarName "mixtureFraction";
    ZVarVarVarVarVarVarVarVarVarVarVarVarVarVarVarVarVarVarVarVarVarVarVarVarVarVarVarVarVarVarVarVarVarVarVarVarVarVarVarVarVarVarVarVarVarVarVarVarScale 1;
    ZVarVarVarVarVarVarVarVarVarVarVarVarVarVarVarVarVarVarVarVarVarVarVarVarVarVarVarVarVarVarVarVarVarVarVarVarVarVarVarVarVarVarVarVarVarVarVarVarOffset 0;
    ZVarVarVarVarVarVarVarVarVarVarVarVarVarVarVarVarVarVarVarVarVarVarVarVarVarVarVarVarVarVarVarVarVarVarVarVarVarVarVarVarVarVarVarVarVarVarVarVarVar "mixtureFraction";
    ZVarVarVarVarVarVarVarVarVarVarVarVarVarVarVarVarVarVarVarVarVarVarVarVarVarVarVarVarVarVarVarVarVarVarVarVarVarVarVarVarVarVarVarVarVarVarVarVarVarName "mixtureFraction";
    ZVarVarVarVarVarVarVarVarVarVarVarVarVarVarVarVarVarVarVarVarVarVarVarVarVarVarVarVarVarVarVarVarVarVarVarVarVarVarVarVarVarVarVarVarVarVarVarVarVarScale 1;
    ZVarVarVarVarVarVarVarVarVarVarVarVarVarVarVarVarVarVarVarVarVarVarVarVarVarVarVarVarVarVarVarVarVarVarVarVarVarVarVarVarVarVarVarVarVarVarVarVarVarOffset 0;
    ZVarVarVarVarVarVarVarVarVarVarVarVarVarVarVarVarVarVarVarVarVarVarVarVarVarVarVarVarVarVarVarVarVarVarVarVarVarVarVarVarVarVarVarVarVarVarVarVarVarVar "mixtureFraction";
    ZVarVarVarVarVarVarVarVarVarVarVarVarVarVarVarVarVarVarVarVarVarVarVarVarVarVarVarVarVarVarVarVarVarVarVarVarVarVarVarVarVarVarVarVarVarVarVarVarVarVarName "mixtureFraction";
    ZVarVarVarVarVarVarVarVarVarVarVarVarVarVarVarVarVarVarVarVarVarVarVarVarVarVarVarVarVarVarVarVarVarVarVarVarVarVarVarVarVarVarVarVarVarVarVarVarVarVarScale 1;
    ZVarVarVarVarVarVarVarVarVarVarVarVarVarVarVarVarVarVarVarVarVarVarVarVarVarVarVarVarVarVarVarVarVarVarVarVarVarVarVarVarVarVarVarVarVarVarVarVarVarVarOffset 0;
    ZVarVarVarVarVarVarVarVarVarVarVarVarVarVarVarVarVarVarVarVarVarVarVarVarVarVarVarVarVarVarVarVarVarVarVarVarVarVarVarVarVarVarVarVarVarVarVarVarVarVarVar "mixtureFraction";
    ZVarVarVarVarVarVarVarVarVarVarVarVarVarVarVarVarVarVarVarVarVarVarVarVarVarVarVarVarVarVarVarVarVarVarVarVarVarVarVarVarVarVarVarVarVarVarVarVarVarVarVarName "mixtureFraction";
    ZVarVarVarVarVarVarVarVarVarVarVarVarVarVarVarVarVarVarVarVarVarVarVarVarVarVarVarVarVarVarVarVarVarVarVarVarVarVarVarVarVarVarVarVarVarVarVarVarVarVarVarScale 1;
    ZVarVarVarVarVarVarVarVarVarVarVarVarVarVarVarVarVarVarVarVarVarVarVarVarVarVarVarVarVarVarVarVarVarVarVarVarVarVarVarVarVarVarVarVarVarVarVarVarVarVarVarOffset 0;
    ZVarVarVarVarVarVarVarVarVarVarVarVarVarVarVarVarVarVarVarVarVarVarVarVarVarVarVarVarVarVarVarVarVarVarVarVarVarVarVarVarVarVarVarVarVarVarVarVarVarVarVarVar "mixtureFraction";
    ZVarVarVarVarVarVarVarVarVarVarVarVarVarVarVarVarVarVarVarVarVarVarVarVarVarVarVarVarVarVarVarVarVarVarVarVarVarVarVarVarVarVarVarVarVarVarVarVarVarVarVarVarName "mixtureFraction";
    ZVarVarVarVarVarVarVarVarVarVarVarVarVarVarVarVarVarVarVarVarVarVarVarVarVarVarVarVarVarVarVarVarVarVarVarVarVarVarVarVarVarVarVarVarVarVarVarVarVarVarVarVarScale 1;
    ZVarVarVarVarVarVarVarVarVarVarVarVarVarVarVarVarVarVarVarVarVarVarVarVarVarVarVarVarVarVarVarVarVarVarVarVarVarVarVarVarVarVarVarVarVarVarVarVarVarVarVarVarOffset 0;
    ZVarVarVarVarVarVarVarVarVarVarVarVarVarVarVarVarVarVarVarVarVarVarVarVarVarVarVarVarVarVarVarVarVarVarVarVarVarVarVarVarVarVarVarVarVarVarVarVarVarVarVarVarVar "mixtureFraction";
    ZVarVarVarVarVarVarVarVarVarVarVarVarVarVarVarVarVarVarVarVarVarVarVarVarVarVarVarVarVarVarVarVarVarVarVarVarVarVarVarVarVarVarVarVarVarVarVarVarVarVarVarVarVarName "mixtureFraction";
    ZVarVarVarVarVarVarVarVarVarVarVarVarVarVarVarVarVarVarVarVarVarVarVarVarVarVarVarVarVarVarVarVarVarVarVarVarVarVarVarVarVarVarVarVarVarVarVarVarVarVarVarVarVarScale 1;
    ZVarVarVarVarVarVarVarVarVarVarVarVarVarVarVarVarVarVarVarVarVarVarVarVarVarVarVarVarVarVarVarVarVarVarVarVarVarVarVarVarVarVarVarVarVarVarVarVarVarVarVarVarVarOffset 0;
    ZVarVarVarVarVarVarVarVarVarVarVarVarVarVarVarVarVarVarVarVarVarVarVarVarVarVarVarVarVarVarVarVarVarVarVarVarVarVarVarVarVarVarVarVarVarVarVarVarVarVarVarVarVarVar "mixtureFraction";
    ZVarVarVarVarVarVarVarVarVarVarVarVarVarVarVarVarVarVarVarVarVarVarVarVarVarVarVarVarVarVarVarVarVarVarVarVarVarVarVarVarVarVarVarVarVarVarVarVarVarVarVarVarVarVarName "mixtureFraction";
    ZVarVarVarVarVarVarVarVarVarVarVarVarVarVarVarVarVarVarVarVarVarVarVarVarVarVarVarVarVarVarVarVarVarVarVarVarVarVarVarVarVarVarVarVarVarVarVarVarVarVarVarVarVarVarScale 1;
    ZVarVarVarVarVarVarVarVarVarVarVarVarVarVarVarVarVarVarVarVarVarVarVarVarVarVarVarVarVarVarVarVarVarVarVarVarVarVarVarVarVarVarVarVarVarVarVarVarVarVarVarVarVarVarOffset 0;
    ZVarVarVarVarVarVarVarVarVarVarVarVarVarVarVarVarVarVarVarVarVarVarVarVarVarVarVarVarVarVarVarVarVarVarVarVarVarVarVarVarVarVarVarVarVarVarVarVarVarVarVarVarVarVarVar "mixtureFraction";
    ZVarVarVarVarVarVarVarVarVarVarVarVarVarVarVarVarVarVarVarVarVarVarVarVarVarVarVarVarVarVarVarVarVarVarVarVarVarVarVarVarVarVarVarVarVarVarVarVarVarVarVarVarVarVarVarName "mixtureFraction";
    ZVarVarVarVarVarVarVarVarVarVarVarVarVarVarVarVarVarVarVarVarVarVarVarVarVarVarVarVarVarVarVarVarVarVarVarVarVarVarVarVarVarVarVarVarVarVarVarVarVarVarVarVarVarVarVarScale 1;
    ZVarVarVarVarVarVarVarVarVarVarVarVarVarVarVarVarVarVarVarVarVarVarVarVarVarVarVarVarVarVarVarVarVarVarVarVarVarVarVarVarVarVarVarVarVarVarVarVarVarVarVarVarVarVarVarOffset 0;
    ZVarVarVarVarVarVarVarVarVarVarVarVarVarVarVarVarVarVarVarVarVarVarVarVarVarVarVarVarVarVarVarVarVarVarVarVarVarVarVarVarVarVarVarVarVarVarVarVarVarVarVarVarVarVarVarVar "mixtureFraction";
    ZVarVarVarVarVarVarVarVarVarVarVarVarVarVarVarVarVarVarVarVarVarVarVarVarVarVarVarVarVarVarVarVarVarVarVarVarVarVarVarVarVarVarVarVarVarVarVarVarVarVarVarVarVarVarVarVarName "mixtureFraction";
    ZVarVarVarVarVarVarVarVarVarVarVarVarVarVarVarVarVarVarVarVarVarVarVarVarVarVarVarVarVarVarVarVarVarVarVarVarVarVarVarVarVarVarVarVarVarVarVarVarVarVarVarVarVarVarVarVarScale 1;
    ZVarVarVarVarVarVarVarVarVarVarVarVarVarVarVarVarVarVarVarVarVarVarVarVarVarVarVarVarVarVarVarVarVarVarVarVarVarVarVarVarVarVarVarVarVarVarVarVarVarVarVarVarVarVarVarVarOffset 0;
    ZVarVarVarVarVarVarVarVarVarVarVarVarVarVarVarVarVarVarVarVarVarVarVarVarVarVarVarVarVarVarVarVarVarVarVarVarVarVarVarVarVarVarVarVarVarVarVarVarVarVarVarVarVarVarVarVarVar "mixtureFraction";
    ZVarVarVarVarVarVarVarVarVarVarVarVarVarVarVarVarVarVarVarVarVarVarVarVarVarVarVarVarVarVarVarVarVarVarVarVarVarVarVarVarVarVarVarVarVarVarVarVarVarVarVarVarVarVarVarVarVarName "mixtureFraction";
    ZVarVarVarVarVarVarVarVarVarVarVarVarVarVarVarVarVarVarVarVarVarVarVarVarVarVarVarVarVarVarVarVarVarVarVarVarVarVarVarVarVarVarVarVarVarVarVarVarVarVarVarVarVarVarVarVarVarScale 1;
    ZVarVarVarVarVarVarVarVarVarVarVarVarVarVarVarVarVarVarVarVarVarVarVarVarVarVarVarVarVarVarVarVarVarVarVarVarVarVarVarVarVarVarVarVarVarVarVarVarVarVarVarVarVarVarVarVarVarOffset 0;
    ZVarVarVarVarVarVarVarVarVarVarVarVarVarVarVarVarVarVarVarVarVarVarVarVarVarVarVarVarVarVarVarVarVarVarVarVarVarVarVarVarVarVarVarVarVarVarVarVarVarVarVarVarVarVarVarVarVarVar "mixtureFraction";
    ZVarVarVarVarVarVarVarVarVarVarVarVarVarVarVarVarVarVarVarVarVarVarVarVarVarVarVarVarVarVarVarVarVarVarVarVarVarVarVarVarVarVarVarVarVarVarVarVarVarVarVarVarVarVarVarVarVarVarName "mixtureFraction";
    ZVarVarVarVarVarVarVarVarVarVarVarVarVarVarVarVarVarVarVarVarVarVarVarVarVarVarVarVarVarVarVarVarVarVarVarVarVarVarVarVarVarVarVarVarVarVarVarVarVarVarVarVarVarVarVarVarVarVarScale 1;
    ZVarVarVarVarVarVarVarVarVarVarVarVarVarVarVarVarVarVarVarVarVarVarVarVarVarVarVarVarVarVarVarVarVarVarVarVarVarVarVarVarVarVarVarVarVarVarVarVarVarVarVarVarVarVarVarVarVarVarOffset 0;
    ZVarVarVarVarVarVarVarVarVarVarVarVarVarVarVarVarVarVarVarVarVarVarVarVarVarVarVarVarVarVarVarVarVarVarVarVarVarVarVarVarVarVarVarVarVarVarVarVarVarVarVarVarVarVarVarVarVarVarVar "mixtureFraction";
    ZVarVarVarVarVarVarVarVarVarVarVarVarVarVarVarVarVarVarVarVarVarVarVarVarVarVarVarVarVarVarVarVarVarVarVarVarVarVarVarVarVarVarVarVarVarVarVarVarVarVarVarVarVarVarVarVarVarVarVarName "mixtureFraction";
    ZVarVarVarVarVarVarVarVarVarVarVarVarVarVarVarVarVarVarVarVarVarVarVarVarVarVarVarVarVarVarVarVarVarVarVarVarVarVarVarVarVarVarVarVarVarVarVarVarVarVarVarVarVarVarVarVarVarVarVarScale 1;
    ZVarVarVarVarVarVarVarVarVarVarVarVarVarVarVarVarVarVarVarVarVarVarVarVarVarVarVarVarVarVarVarVarVarVarVarVarVarVarVarVarVarVarVarVarVarVarVarVarVarVarVarVarVarVarVarVarVarVarVarOffset 0;
    ZVarVarVarVarVarVarVarVarVarVarVarVarVarVarVarVarVarVarVarVarVarVarVarVarVarVarVarVarVarVarVarVarVarVarVarVarVarVarVarVarVarVarVarVarVarVarVarVarVarVarVarVarVarVarVarVarVarVarVarVar "mixtureFraction";
    ZVarVarVarVarVarVarVarVarVarVarVarVarVarVarVarVarVarVarVarVarVarVarVarVarVarVarVarVarVarVarVarVarVarVarVarVarVarVarVarVarVarVarVarVarVarVarVarVarVarVarVarVarVarVarVarVarVarVarVarVarName "mixtureFraction";
    ZVarVarVarVarVarVarVarVarVarVarVarVarVarVarVarVarVarVarVarVarVarVarVarVarVarVarVarVarVarVarVarVarVarVarVarVarVarVarVarVarVarVarVarVarVarVarVarVarVarVarVarVarVarVarVarVarVarVarVarVarScale 1;
    ZVarVarVarVarVarVarVarVarVarVarVarVarVarVarVarVarVarVarVarVarVarVarVarVarVarVarVarVarVarVarVarVarVarVarVarVarVarVarVarVarVarVarVarVarVarVarVarVarVarVarVarVarVarVarVarVarVarVarVarVarOffset 0;
    ZVarVarVarVarVarVarVarVarVarVarVarVarVarVarVarVarVarVarVarVarVarVarVarVarVarVarVarVarVarVarVarVarVarVarVarVarVarVarVarVarVarVarVarVarVarVarVarVarVarVarVarVarVarVarVarVarVarVarVarVarVar "mixtureFraction";
    ZVarVarVarVarVarVarVarVarVarVarVarVarVarVarVarVarVarVarVarVarVarVarVarVarVarVarVarVarVarVarVarVarVarVarVarVarVarVarVarVarVarVarVarVarVarVarVarVarVarVarVarVarVarVarVarVarVarVarVarVarVarName "mixtureFraction";
    ZVarVarVarVarVarVarVarVarVarVarVarVarVarVarVarVarVarVarVarVarVarVarVarVarVarVarVarVarVarVarVarVarVarVarVarVarVarVarVarVarVarVarVarVarVarVarVarVarVarVarVarVarVarVarVarVarVarVarVarVarVarScale 1;
    ZVarVarVarVarVarVarVarVarVarVarVarVarVarVarVarVarVarVarVarVarVarVarVarVarVarVarVarVarVarVarVarVarVarVarVarVarVarVarVarVarVarVarVarVarVarVarVarVarVarVarVarVarVarVarVarVarVarVarVarVarVarOffset 0;
    ZVarVarVarVarVarVarVarVarVarVarVarVarVarVarVarVarVarVarVarVarVarVarVarVarVarVarVarVarVarVarVarVarVarVarVarVarVarVarVarVarVarVarVarVarVarVarVarVarVarVarVarVarVarVarVarVarVarVarVarVarVarVar "mixtureFraction";
    ZVarVarVarVarVarVarVarVarVarVarVarVarVarVarVarVarVarVarVarVarVarVarVarVarVarVarVarVarVarVarVarVarVarVarVarVarVarVarVarVarVarVarVarVarVarVarVarVarVarVarVarVarVarVarVarVarVarVarVarVarVarVarName "mixtureFraction";
    ZVarVarVarVarVarVarVarVarVarVarVarVarVarVarVarVarVarVarVarVarVarVarVarVarVarVarVarVarVarVarVarVarVarVarVarVarVarVarVarVarVarVarVarVarVarVarVarVarVarVarVarVarVarVarVarVarVarVarVarVarVarVarScale 1;
    ZVarVarVarVarVarVarVarVarVarVarVarVarVarVarVarVarVarVarVarVarVarVarVarVarVarVarVarVarVarVarVarVarVarVarVarVarVarVarVarVarVarVarVarVarVarVarVarVarVarVarVarVarVarVarVarVarVarVarVarVarVarVarOffset 0;
    ZVarVarVarVarVarVarVarVarVarVarVarVarVarVarVarVarVarVarVarVarVarVarVarVarVarVarVarVarVarVarVarVarVarVarVarVarVarVarVarVarVarVarVarVarVarVarVarVarVarVarVarVarVarVarVarVarVarVarVarVarVarVarVar "mixtureFraction";
    ZVarVarVarVarVarVarVarVarVarVarVarVarVarVarVarVarVarVarVarVarVarVarVarVarVarVarVarVarVarVarVarVarVarVarVarVarVarVarVarVarVarVarVarVarVarVarVarVarVarVarVarVarVarVarVarVarVarVarVarVarVarVarVarName "mixtureFraction";
    ZVarVarVarVarVarVarVarVarVarVarVarVarVarVarVarVarVarVarVarVarVarVarVarVarVarVarVarVarVarVarVarVarVarVarVarVarVarVarVarVarVarVarVarVarVarVarVarVarVarVarVarVarVarVarVarVarVarVarVarVarVarVarVarScale 1;
    ZVarVarVarVarVarVarVarVarVarVarVarVarVarVarVarVarVarVarVarVarVarVarVarVarVarVarVarVarVarVarVarVarVarVarVarVarVarVarVarVarVarVarVarVarVarVarVarVarVarVarVarVarVarVarVarVarVarVarVarVarVarVarVarOffset 0;