FoamFile
{
    version     2.0;
    format      ascii;
    class       dictionary;
    object      momentumTransport;
}
// * * * * * * * * * * * * * * * * * * * * * * * * * * * * * * * * * * * * * //

simulationType  buoyantBoussinesqSimpleFoam;

nu              nu;

Pr              0.7;

nuTilda         nuTilda;

// End of file