FoamFile
{
    version     2.0;
    format      ascii;
    class       dictionary;
    object      physicalProperties;
}
// * * * * * * * * * * * * * * * * * * * * * * * * * * * * * * * * * * * * * //

rhoInf          1.0;
pRef            0;
g               (0 0 -9.81);

thermoType
{
    type            hePsiThermo;
    mixture         perfectGas;
    transport       const;
    thermo          hConst;
    equationOfState perfectGas;
    specie          specie;
}

mixture
{
    species
    (
        air
    );

    transport
    {
        mu              1.84e-5;
        Pr              0.7;
    }

    thermodynamics
    {
        Cp              1005;
        Hf              0;
    }

    equationOfState
    {
        R               287.058;
    }
}

T0              300;
p0              101325;

nu              1.84e-5;
alpha           2.63e-5;
beta            3.33e-3;

gamma           1.4;
Cp              1005;
Cv              718;
Hf              0;
R               287.058;