/*--------------------------------*- C++ -*----------------------------------*\
  =========                 |
  \\      /  F ield         | OpenFOAM: The Open Source CFD Toolbox
   \\    /   O peration     | Website:  https://openfoam.org
    \\  /    A nd           | Version:  10
     \\/     M anipulation  |
\*---------------------------------------------------------------------------*/
FoamFile
{
    format      ascii;
    class       polyBoundaryMesh;
    location    "constant/polyMesh";
    object      boundary;
}
// * * * * * * * * * * * * * * * * * * * * * * * * * * * * * * * * * * * * * //

5
(
    inlet
    {
        type            patch;
        nFaces          10;
        startFace       1890;
    }
    outlet
    {
        type            patch;
        nFaces          10;
        startFace       1900;
    }
    top
    {
        type            patch;
        nFaces          100;
        startFace       1910;
    }
    bottom
    {
        type            patch;
        nFaces          100;
        startFace       2010;
    }
    frontAndBack
    {
        type            empty;
        inGroups        List<word> 1(empty);
        nFaces          2000;
        startFace       2110;
    }
)

// ************************************************************************* //
