FoamFile
{
    format      ascii;
    class       dictionary;
    location    "constant";
    object      momentumTransport;
}


simulationType  laminar;

laminar
{
    model           generalisedNewtonian;

    viscosityModel  CrossPowerLaw;

    CrossPowerLawCoeffs
    {
        nuInf       10;
        m           0.4;
        n           3;
    }
}