FoamFile
    {
        version     2.0;
        format      ascii;
        class       dimensionedScalar;
        object      nu;
    }

    // * * * * * * * * * * * * * * * * * * * * * * * * * * * * * * * * * * * * * //

    value   1e-05;
}