FoamFile
{
    format      ascii;
    class       volScalarField;
    object      ReThetat;
}


dimensions      [0 0 0 0 0 0 0];

internalField   uniform 1;

boundaryField
{
    inlet
    {
        type            calculated;
        value           uniform 1;
    }

    outlet
    {
        type            calculated;
        value           uniform 1;
    }

    wall
    {
        type            calculated;
        value           uniform 1;
    }
}