/*--------------------------------*- C++ -*----------------------------------*\
  =========                 |
  \\      /  F ield         | OpenFOAM: The Open Source CFD Toolbox
   \\    /   O peration     | Website:  https://openfoam.org
    \\  /    A nd           | Version:  10
     \\/     M anipulation  |
\*---------------------------------------------------------------------------*/
FoamFile
{
    format      ascii;
    class       polyBoundaryMesh;
    location    "constant/polyMesh";
    object      boundary;
}
// * * * * * * * * * * * * * * * * * * * * * * * * * * * * * * * * * * * * * //

6
(
    inlet
    {
        type            patch;
        nFaces          20;
        startFace       760;
    }
    outlet
    {
        type            patch;
        nFaces          20;
        startFace       780;
    }
    front
    {
        type            patch;
        nFaces          400;
        startFace       800;
    }
    back
    {
        type            patch;
        nFaces          400;
        startFace       1200;
    }
    top
    {
        type            patch;
        nFaces          20;
        startFace       1600;
    }
    bottom
    {
        type            patch;
        nFaces          20;
        startFace       1620;
    }
)

// ************************************************************************* //
