FoamFile
{
    version     2.0;
    format      ascii;
    class       dictionary;
    object      blockMeshDict;
}

// * * * * * * * * * * * * * * * * * * * * * * * * * * * * * * * * * * * * * //

scale   0.1;

vertices
(
    (0 0 0)       // 0: bottom-left
    (1 0 0)       // 1: bottom-right
    (1 1 0)       // 2: top-right
    (0 1 0)       // 3: top-left
    (0 0 0.1)     // 4: bottom-left-z
    (1 0 0.1)     // 5: bottom-right-z
    (1 1 0.1)     // 6: top-right-z
    (0 1 0.1)     // 7: top-left-z
);

blocks
(
    hex (0 1 2 3 4 5 6 7) (20 20 1) simpleGrading (1 1 1)
);

edges
(
);

boundary
(
    movingWall
    {
        type wall;
        faces
        (
            (3 2 6 7)
        );
    }
    fixedWalls
    {
        type wall;
        faces
        (
            (0 1 5 4)
            (1 2 6 5)
            (0 3 7 4)
        );
    }
    emptyFront
    {
        type empty;
        faces
        (
            (0 3 2 1)
        );
    }
    emptyBack
    {
        type empty;
        faces
        (
            (4 5 6 7)
        );
    }
);

mergePatchPairs
(
);