FoamFile
{
    version     2.0;
    format      ascii;
    class       dictionary;
    object      fvSolution;
}

// * * * * * * * * * * * * * * * * * * * * * * * * * * * * * * * * * * * * * //

solvers
{
    p
    {
        solver          GAMG;
        tolerance       1e-06;
        relTol          0.1;
        smoother        GaussSeidel;
    }

    "(U|k|omega|epsilon)"
    {
        solver          smoothSolver;
        smoother        symGaussSeidel;
        tolerance       1e-05;
        relTol          0.1;
    }
}

SIMPLE
{
    nNonOrthogonalCorrectors 0;
    consistent        yes;
}

PISO
{
    nCorrectors     2;
    nNonOrthogonalCorrectors 0;
    pRefCell        0;
    pRefValue       0;
}

relaxationFactors
{
    equations
    {
        U               0.7;
        p               0.3;
    }
    fields
    {
    }
}

mergeCorrection    yes;

// * * * * * * * * * * * * * * * * * * * * * * * * * * * * * * * * * * * * * //