FoamFile
{
    version     2.0;
    format      ascii;
    class       dictionary;
    object      transportProperties;
}

// Transport properties for 3D Bernard Cell natural convection simulation
// Solver: buoyantFoam
// Fluid: Air at approximately 300 K and 1 atm
// Domain: 9 m (x) x 1 m (y) x 2 m (z)
// Hot wall at y=0: 301 K, Cold wall at y=1: 300 K

// Kinematic viscosity [L^2/T]
// Air at 300 K: nu ≈ 1.57e-5 m²/s
nu              1.57e-05;

// Thermal conductivity [M L / (T^3 K)]
// Air at 300 K: k ≈ 0.026 W/(m·K)
kappa           0.026;

// Specific heat capacity [L^2 / (T^2 K)]
// Air at 300 K: Cp ≈ 1005 J/(kg·K)
Cp              1005;

// Reference density [M/L^3]
// Air at 300 K, 1 atm: rho ≈ 1.177 kg/m³
rhoInf          1.177;

// Thermal expansion coefficient [1/K]
// For ideal gas: beta = 1/T_ref
// T_ref = (301 + 300)/2 = 300.5 K
beta            0.003327786;