FoamFile
{
    version     2.0;
    format      ascii;
    class       dictionary;
    object      blockMeshDict;
}

scale   0.001;

vertices
(
    (-50  25  25)
    (-50  25 -25)
    (-50 -75  25)
    (-50 -75 -25)
    (-500 25  25)
    (-500 25 -25)
    (-500 -75  25)
    (-500 -75 -25)
    (25  25  25)
    (25  25 -25)
    (25 -75  25)
    (25 -75 -25)
    (25  0  25)
    (25  0 -25)
    (-50  0  25)
    (-50  0 -25)
);

blocks
(
    hex (0 1 2 3 4 5 6 7) (10 10 10) simpleGrading (1 1 1)
    hex (0 1 13 12 4 5 9 8) (10 10 10) simpleGrading (1 1 1)
    hex (1 3 15 13 5 7 11 9) (10 10 10) simpleGrading (1 1 1)
    hex (0 2 14 12 4 6 10 8) (10 10 10) simpleGrading (1 1 1)
    hex (2 3 15 14 6 7 11 10) (10 10 10) simpleGrading (1 1 1)
    hex (8 9 15 14 10 11 13 12) (10 10 10) simpleGrading (1 1 1)
);

edges
(
);

boundary
(
    inlet
    {
        type patch;
        faces
        (
            (0 1 8 9)
            (0 2 8 10)
            (1 3 9 11)
        );
    }
    outlet
    {
        type patch;
        faces
        (
            (4 5 12 13)
            (4 6 12 14)
            (5 7 13 15)
        );
    }
    walls
    {
        type wall;
        faces
        (
            (0 1 2 3)
            (4 5 6 7)
            (8 9 10 11)
            (12 13 14 15)
            (0 4 8 10)
            (1 5 9 11)
            (2 6 10 14)
            (3 7 11 15)
        );
    }
);

mergePatchPairs
(
);