FoamFile
{
    version     2.0;
    format      ascii;
    class       dictionary;
    object      fvConstraints;
}

source      (limitVelocity limitTemperature);

limitVelocity
{
    field       U;
    min         0;
    max         1000;
}

limitTemperature
{
    field       T;
    min         0;
    max         10000;
}