FoamFile
{
    version     2.0;
    format      ascii;
    class       dictionary;
    object      physicalProperties;
}

// * * * * * * * * * * * * * * * * * * * * * * * * * * * * * * * * * * * * * //

thermoType
{
    type            heRhoThermo;
    mixture         pureMixture;
    transport       const;
    thermo          hConst;
    equationOfState perfectGas;
    specie          specie;
    energy          sensibleEnthalpy;
}

rho           [1 -3 0 0 0 0 0] 1.225;
beta          [0 -1 0 0 0 0 0] 0.00333;
g             [0 1 -2 0 0 0 0] (0 0 -9.81);

// * * * * * * * * * * * * * * * * * * * * * * * * * * * * * * * * * * * * * //