FoamFile
{
    format      ascii;
    class       dictionary;
    location    "constant";
    object      combustionProperties;
}


combustionModel  PaSR;

PaSRCoeffs
{
    Cmix                1.0;
}