FoamFile
{
    format      ascii;
    class       dictionary;
    location    "constant";
    object      physicalProperties;
}

thermoType
{
    type            hePsiThermo;
    mixture         multiComponentMixture;
    transport       sutherland;
    thermo          janaf;
    energy          sensibleEnthalpy;
    equationOfState perfectGas;
    specie          specie;
}

defaultSpecie N2;

fuel
{
    O2  0.233;
    CH4 0.767;
}

air
{
    N2  0.77;
    O2  0.23;
}

specie
{
    CH4
    {
        moleculeSize    5;
        molWeight       16.04;
        Cp              35.0;
        Hf              -74873;
    }
    O2
    {
        moleculeSize    2;
        molWeight       32.0;
        Cp              29.3;
        Hf              0;
    }
    N2
    {
        moleculeSize    2;
        molWeight       28.01;
        Cp              29.1;
        Hf              0;
    }
}