FoamFile
{
    version     2.0;
    format      ascii;
    class       volScalarField;
    object      p;
}
// * * * * * * * * * * * * * * * * * * * * * * * * * * * * * * * * * * * * * //

dimensions      [1 -1 -2 0 0 0 0];

internalField   uniform 101325;

boundaryField
{
    fuel
    {
        type            fixedValue;
        value           uniform 101325;
    }
    air
    {
        type            fixedValue;
        value           uniform 101325;
    }
    outlet
    {
        type            inletOutlet;
        inletValue      uniform 101325;
        value           uniform 101325;
    }
    frontAndBack
    {
        type            empty;
    }
}

// ************************************************************************* //