FoamFile
{
    format      ascii;
    class       volScalarField;
    location    "0";
    object      epsilon;
}

dimensions      [0 2 -3 0 0 0 0];

internalField   uniform 1e-6;

boundaryField
{
    hotWall
    {
        type            epsilonWallFunction;
        value           uniform 1e-6;
    }

    coldWall
    {
        type            epsilonWallFunction;
        value           uniform 1e-6;
    }

    frontAndBack
    {
        type            empty;
    }
}