FoamFile
{
    format      ascii;
    class       volScalarField;
    location    "0";
    object      nut;
}

dimensions      [0 2 -1 0 0 0 0];

internalField   uniform 1e-4;

boundaryField
{
    hotWall
    {
        type            nutkWallFunction;
        value           uniform 1e-4;
    }

    coldWall
    {
        type            nutkWallFunction;
        value           uniform 1e-4;
    }

    frontAndBack
    {
        type            empty;
    }
}