FoamFile
{
    format      ascii;
    class       volScalarField;
    object      T;
}

dimensions      [0 0 0 1 0 0 0];

internalField   uniform 300;

boundaryField
{
    hotWall
    {
        type            fixedValue;
        value           uniform 305;
    }

    coldWall
    {
        type            fixedValue;
        value           uniform 300;
    }

    frontAndBack
    {
        type            empty;
    }
}