FoamFile
{
    format      ascii;
    class       volVectorField;
    object      U;
}


dimensions      [0 1 -1 0 0 0 0];

internalField   uniform (0 0 0);

boundaryField
{
    walls
    {
        type            noSlip;
    }
}