FoamFile
{
    format      ascii;
    class       dictionary;
    location    "constant";
    object      gravitationalProperties;
}

dimensions      [0 1 -2 0 0 0 0];
g               (0 0 -9.81);
