FoamFile
{
    version     2.0;
    format      ascii;
    class       dictionary;
    object      setFieldsDict;
}
// * * * * * * * * * * * * * * * * * * * * * * * * * * * * * * * * * * * * * //

defaultFieldValues
(
    volScalarFieldValue hTotal 0.01
    volVectorFieldValue hU (0.001 0 0)
);

regions
(
    boxToCell
    {
        box (0.45 0 -1) (0.55 1 1);
        fieldValues
        (
            volScalarFieldValue hTotal 0.01
            volVectorFieldValue hU (0.001 0 0)
        );
    }
);

// ************************************************************************* //