/*--------------------------------*- C++ -*----------------------------------*\
  =========                 |
  \\      /  F ield         | OpenFOAM: The Open Source CFD Toolbox
   \\    /   O peration     | Website:  https://openfoam.org
    \\  /    A nd           | Version:  10
     \\/     M anipulation  |
\*---------------------------------------------------------------------------*/
FoamFile
{
    format      ascii;
    class       polyBoundaryMesh;
    location    "constant/polyMesh";
    object      boundary;
}
// * * * * * * * * * * * * * * * * * * * * * * * * * * * * * * * * * * * * * //

7
(
    inlet
    {
        type            patch;
        nFaces          100;
        startFace       22200;
    }
    outlet
    {
        type            patch;
        nFaces          100;
        startFace       22300;
    }
    floor
    {
        type            wall;
        inGroups        List<word> 1(wall);
        nFaces          400;
        startFace       22400;
    }
    ceiling
    {
        type            wall;
        inGroups        List<word> 1(wall);
        nFaces          800;
        startFace       22800;
    }
    step
    {
        type            wall;
        inGroups        List<word> 1(wall);
        nFaces          100;
        startFace       23600;
    }
    frontAndBack
    {
        type            empty;
        inGroups        List<word> 1(empty);
        nFaces          1600;
        startFace       23700;
    }
    defaultFaces
    {
        type            empty;
        inGroups        List<word> 1(empty);
        nFaces          500;
        startFace       25300;
    }
)

// ************************************************************************* //
