FoamFile
{
    version     2.0;
    format      ascii;
    class       dictionary;
    object      controlDict;
}
// * * * * * * * * * * * * * * * * * * * * * * * * * * * * * * * * * * * * * //

application     shallowWaterFoam;

startFrom       startTime;

startTime       0;

stopAt          endTime;

endTime         100;

deltaT          0.1;

writeControl    timeStep;

writeInterval   10;

timePrecision   8;

functions       {};

libs
(
    "libfieldFunctionObjects.so"
);

// * * * * * * * * * * * * * * * * * * * * * * * * * * * * * * * * * * * * * //