FoamFile
{
    version     2.0;
    format      ascii;
    class       dictionary;
    object      fvSchemes;
}
// * * * * * * * * * * * * * * * * * * * * * * * * * * * * * * * * * * * * * //

ddtSchemes
{
    default         Euler;
}

gradSchemes
{
    default         Gauss linear;
    grad(p)         Gauss linear;
    grad(U)         Gauss linear;
    grad(h)         Gauss linear;
    grad(gh)        Gauss linear;
}

divSchemes
{
    default         Gauss linear;
    div(phi,h)      Gauss linear;
    div(phi,U)      Gauss linear;
    div(phirb,h)    Gauss linear;
    div(phirb,U)    Gauss linear;
}

laplacianSchemes
{
    default         Gauss linear corrected;
    laplacian(nuEff,U) Gauss linear corrected;
}

interpolationSchemes
{
    default         linear;
}

snGradSchemes
{
    default         Gauss linear;
}

fluxRequired
{
    default         no;
    h               yes;
    gh              yes;
    U               yes;
}

// ************************************************************************* //