FoamFile
{
    version     2.0;
    format      ascii;
    class       dictionary;
    object      blockMeshDict;
}
// * * * * * * * * * * * * * * * * * * * * * * * * * * * * * * * * * * * * * //

convertToMeters 1;

vertices
(
    (0    0    0)
    (2    0    0)
    (2    1    0)
    (0    1    0)
    (0.5  0.5  0)
    (1.5  0.5  0)
    (0.5  0.5  1)
    (1.5  0.5  1)
);

blocks
(
    hex (0 1 2 3 4 5 6 7) (20 20 1) simpleGrading (1 1 1)
);

edges
(
);

boundary
(
    inlet
    {
        type patch;
        faces ((0 4 5 1));
    }
    outlet
    {
        type patch;
        faces ((1 2 3 0));
    }
    walls
    {
        type wall;
        faces ((3 2 5 4));
    }
);

mergePatchPairs
(
);

// ************************************************************************* //