FoamFile
{
    version     2.0;
    format      ascii;
    class       dictionary;
    object      fvSolution;
}
// * * * * * * * * * * * * * * * * * * * * * * * * * * * * * * * * * * * * * //

solvers
{
    p
    {
        solver          PCG;
        preconditioner  DIC;
        tolerance       1e-08;
        relTol          0.01;
    }

    U
    {
        solver          smoothSolver;
        smoother        GaussSeidel;
        nSweeps         2;
        tolerance       1e-06;
        relTol          0.05;
    }

    T
    {
        solver          smoothSolver;
        smoother        GaussSeidel;
        nSweeps         2;
        tolerance       1e-06;
        relTol          0.05;
    }
}

PIMPLE
{
    nCorrectors     2;
    nNonOrthogonalCorrectors 0;
    momentumPredictor yes;
    transonic       no;
    aggressive      no;
    turbOnFinalIterOnly no;
}

relaxationFactors
{
    equations
    {
        U               0.7;
        p               0.3;
    }
}

fvSchemes
{
    ddtSchemes
    {
        default         Euler;
    }

    gradSchemes
    {
        default         Gauss linear;
    }

    divSchemes
    {
        default         Gauss linear;
        div(phi,U)      Gauss linearUpwind grad(U);
        div(phi,T)      Gauss linearUpwind grad(T);
    }

    laplacianSchemes
    {
        default         Gauss linear corrected;
    }

    interpolationSchemes
    {
        default         linear;
    }

    snGradSchemes
    {
        default         corrected;
    }

    fluxRequired
    {
        default         no;
        p               ;
    }
}