FoamFile
{
    version     2.0;
    format      ascii;
    class       dictionary;
    object      fvSchemes;
}

// * * * * * * * * * * * * * * * * * * * * * * * * * * * * * * * * * * * * * //

ddtSchemes
{
    default         Euler;
}

gradSchemes
{
    default         Gauss linear;
}

divSchemes
{
    default         none;
    div(phi,U)      bounded Gauss linearUpwind grad(U);
    div(phi,T)      bounded Gauss linearUpwind grad(T);
    div(phi,k)      bounded Gauss linearUpwind grad(k);
    div(phi,omega)  bounded Gauss linearUpwind grad(omega);
    div(phi,epsilon) bounded Gauss linearUpwind grad(epsilon);
    div(phi,R)      bounded Gauss linearUpwind grad(R);
    div(R)          Gauss linear;
    div(phi,nuTilda) bounded Gauss linearUpwind grad(nuTilda);
    div((nuEff*dev2(T(grad(U))))) Gauss linear;
}

laplacianSchemes
{
    default         Gauss linear corrected;
}

interpolationSchemes
{
    default         linear;
}

snGradSchemes
{
    default         corrected;
}

wallDist
{
    method          meshWave;
}

// * * * * * * * * * * * * * * * * * * * * * * * * * * * * * * * * * * * * * //