FoamFile
{
    version     2.0;
    format      ascii;
    class       dictionary;
    object      fvSolution;
}

// * * * * * * * * * * * * * * * * * * * * * * * * * * * * * * * * * * * * * //

solvers
{
    p
    {
        solver          GAMG;
        tolerance       1e-06;
        relTol          0.1;
        smoother        GaussSeidel;
    }

    "(U|T)"
    {
        solver          smoothSolver;
        smoother        symGaussSeidel;
        tolerance       1e-05;
        relTol          0.1;
    }
}

SIMPLE
{
    nNonOrthogonalCorrectors 0;
    consistent      yes;
    residualControl
    {
        p               1e-4;
        U               1e-4;
        T               1e-4;
    }
}

PIMPLE
{
    nOuterCorrectors 1;
    nInnerCorrectors 0;
    consistent      yes;
    residualControl
    {
        p               1e-4;
        U               1e-4;
        T               1e-4;
    }
}

relaxationFactors
{
    equations
    {
        U               0.3;
        T               0.3;
    }
    fields
    {
        p               0.3;
    }
}

// * * * * * * * * * * * * * * * * * * * * * * * * * * * * * * * * * * * * * //