FoamFile
{
    version     2.0;
    format      ascii;
    class       dictionary;
    object      thermophysicalProperties;
}

// * * * * * * * * * * * * * * * * * * * * * * * * * * * * * * * * * * * * * //

thermoType
{
    type            hePsiThermo;
    mixture         pureMixture;
    transport       const;
    thermo          hConst;
    equationOfState         perfectGas;
    specie;
    energy        sensibleEnthalpy;
}

mixture
{
    specie
    {
        nMoles        1;
        M0            28.97;
        W0            1;
        Hf0           0;
        Cp0           1005;
        Pr            0.71;
    }
    thermodynamics
    {
        Hf            0;
        Cp            1005;
    }
    transport
    {
        mu            1.8e-5;
        Pr            0.71;
    }
    equationOfState
    {
        p0            101325;
        T0            293.15;
    }
}

// * * * * * * * * * * * * * * * * * * * * * * * * * * * * * * * * * * * * * //