FoamFile
{
    version     2.0;
    format      ascii;
    class       dictionary;
    object      transportProperties;
}

// * * * * * * * * * * * * * * * * * * * * * * * * * * * * * * * * * * * * * //

rho           1.225;

nu            1.5e-5;

Pr            0.71;

// * * * * * * * * * * * * * * * * * * * * * * * * * * * * * * * * * * * * * //