/*--------------------------------*- C++ -*----------------------------------*\
  =========                 |
  \\      /  F ield         | OpenFOAM: The Open Source CFD Toolbox
   \\    /   O peration     | Website:  https://openfoam.org
    \\  /    A nd           | Version:  10
     \\/     M anipulation  |
\*---------------------------------------------------------------------------*/
FoamFile
{
    format      ascii;
    class       polyBoundaryMesh;
    location    "constant/polyMesh";
    object      boundary;
}
// * * * * * * * * * * * * * * * * * * * * * * * * * * * * * * * * * * * * * //

6
(
    left
    {
        type            wall;
        inGroups        List<word> 1(wall);
        nFaces          100;
        startFace       2700;
    }
    right
    {
        type            wall;
        inGroups        List<word> 1(wall);
        nFaces          100;
        startFace       2800;
    }
    bottom
    {
        type            wall;
        inGroups        List<word> 1(wall);
        nFaces          100;
        startFace       2900;
    }
    top
    {
        type            wall;
        inGroups        List<word> 1(wall);
        nFaces          100;
        startFace       3000;
    }
    front
    {
        type            wall;
        inGroups        List<word> 1(wall);
        nFaces          100;
        startFace       3100;
    }
    back
    {
        type            wall;
        inGroups        List<word> 1(wall);
        nFaces          100;
        startFace       3200;
    }
)

// ************************************************************************* //
