FoamFile
{
    format      ascii;
    class       volScalarField;
    location    "0";
    object      epsilon;
}


dimensions      [0 2 -3 0 0 0 0];

internalField   uniform 2;

boundaryField
{
    movingWall
    {
        type            epsilonWallFunction;
        value           uniform 2;
    }
    fixedWalls
    {
        type            epsilonWallFunction;
        value           uniform 2;
    }
    frontAndBack
    {
        type            empty;
    }
}