FoamFile
{
    version     2.0;
    format      ascii;
    class       dictionary;
    object      fvSolution;
}

// * * * * * * * * * * * * * * * * * * * * * * * * * * * * * * * * * * * * * //

solvers
{
    p
    {
        solver          GAMG;
        tolerance       1e-06;
        relTol          0.1;
        smoother        GaussSeidel;
    }

    "(U|k|omega)"
    {
        solver          smoothSolver;
        smoother        symGaussSeidel;
        tolerance       1e-05;
        relTol          0.1;
    }
}

PIMPLE
{
    nOuterCorrectors 2;
    nCorrectors     2;
    nNonOrthogonalCorrectors 0;
    momentumPredictor yes;

    residualControl
    {
        p               1e-4;
        "(U|k|omega)"   1e-4;
    }
}

relaxationFactors
{
    equations
    {
        U               0.7;
        k               0.7;
        omega           0.7;
    }
    fields
    {
        p               0.3;
    }
}

// ************************************************************************* //