FoamFile
{
    version     2.0;
    format      ascii;
    class       dictionary;
    object      fvSolution;
}

// * * * * * * * * * * * * * * * * * * * * * * * * * * * * * * * * * * * * * //

solvers
{
    p
    {
        solver          GAMG;
        tolerance       1e-06;
        relTol          0.1;
        smoother        GaussSeidel;
        agglomerator    faceAreaPair;
        nCellsInCoarsestLevel 10;
        mergeLevels     1;
        pFinal          GAMG;
    }

    U
    {
        solver          smoothSolver;
        smoother        symGaussSeidel;
        tolerance       1e-05;
        relTol          0.1;
    }
}

PIMPLE
{
    momentumPredictor yes;
    nOuterCorrectors  2;
    nCorrectors       1;
    nNonOrthogonalCorrectors 0;
    consistent        yes;

    residualControl
    {
        p                 1e-4;
        U                 1e-4;
    }
}

relaxationFactors
{
    equations
    {
        U               0.5;
    }
    fields
    {
        p               0.3;
    }
}

// * * * * * * * * * * * * * * * * * * * * * * * * * * * * * * * * * * * * * //