FoamFile
{
    format      ascii;
    class       dictionary;
    location    "constant";
    object      transportProperties;
}


viscosityModel  constant;

nu              [0 2 -1 0 0 0 0] 0.0001;