FoamFile
{
    format      ascii;
    class       dictionary;
    location    "constant";
    object      turbulenceProperties;
}


simulationType  laminar;