FoamFile
{
    version     2.0;
    format      ascii;
    class       volScalarField;
    object      O2;
}
// * * * * * * * * * * * * * * * * * * * * * * * * * * * * * * * * * * * * * //

dimensions      [0 0 0 0 0 0 0];

internalField   uniform 0.23;

boundaryField
{
    fuel
    {
        type            fixedValue;
        value           uniform 0.0;
    }
    air
    {
        type            fixedValue;
        value           uniform 0.23;
    }
    outlet
    {
        type            inletOutlet;
        inletValue      uniform 0.23;
        value           uniform 0.23;
    }
    frontAndBack
    {
        type            empty;
    }
}

// ************************************************************************* //