FoamFile
{
    version     2.0;
    format      ascii;
    class       dictionary;
    object      blockMeshDict;
}
// * * * * * * * * * * * * * * * * * * * * * * * * * * * * * * * * * * * * * //

convertToMeters 1;

vertices
(
    (0 0 0)
    (0.1 0 0)
    (0.1 0.1 0)
    (0 0.1 0)
    (0 0 0.001)
    (0.1 0 0.001)
    (0.1 0.1 0.001)
    (0 0.1 0.001)
);

blocks
(
    hex (0 1 2 3 4 5 6 7) (20 20 1) simpleGrading (1 1 1)
);

edges
(
);

boundary
(
    movingWall
    {
        type wall;
        faces
        (
            (4 5 6 7)
        );
    }
    fixedWalls
    {
        type wall;
        faces
        (
            (0 1 2 3)
        );
    }
    empty
    {
        type empty;
        faces
        (
            (0 3 7 4)
            (1 2 6 5)
        );
    }
);

mergePatchPairs
(
);

// ************************************************************************* //