FoamFile
{
    format      ascii;
    class       volScalarField;
    object      p_rgh;
}


dimensions      [1 -1 -2 0 0 0 0];

internalField   uniform 0;

boundaryField
{
    left
    {
        type            fixedFluxPressure;
    }

    right
    {
        type            fixedFluxPressure;
    }

    top
    {
        type            fixedFluxPressure;
    }

    bottom
    {
        type            fixedFluxPressure;
    }

    frontAndBack
    {
        type            empty;
    }
}