FoamFile
{
    format      ascii;
    class       dictionary;
    object      blockMeshDict;
}


convertToMeters 1;

vertices
(
    (0.0  -0.01 -0.01)
    (0.02 -0.01 -0.01)
    (0.02  0.01 -0.01)
    (0.0   0.01 -0.01)
    (0.0  -0.01  0.01)
    (0.02 -0.01  0.01)
    (0.02  0.01  0.01)
    (0.0   0.01  0.01)
);

blocks
(
    hex (0 1 2 3 4 5 6 7) (10 10 1) simpleGrading (1 1 1)
);

defaultPatch
{
    type empty;
}

boundary
(
);