FoamFile
{
    format      ascii;
    class       dictionary;
    location    "system";
    object      fvSolution;
}

solvers
{
    "rho.*"
    {
        solver          diagonal;
    }

    p
    {
        solver           PCG;
        preconditioner   DIC;
        tolerance        1e-6;
        relTol           0.01;
    }

    pFinal
    {
        $p;
        relTol          0;
    }

    "(U|Yi|h)"
    {
        solver          PBiCGStab;
        preconditioner  DILU;
        tolerance       1e-6;
        relTol          0.1;
    }

    "(U|Yi|h)Final"
    {
        $U;
        relTol          0;
    }

    "k|epsilon"
    {
        $UFinal;
    }
}

PIMPLE
{
    nCorrectors     2;
    nNonOrthogonalCorrectors 0;
    momentumPredictor yes;
    outerCorrector  yes;
}

potentialFlow
{
    nNonOrthogonalCorrectors 3;
}