FoamFile
{
    version     2.0;
    format      ascii;
    class       dictionary;
    object      gravitationalProperties;
}
// * * * * * * * * * * * * * * * * * * * * * * * * * * * * * * * * * * * * * //

g               (0 -9.81 0);

// ************************************************************************* //