FoamFile
{
    version     2.0;
    format      ascii;
    class       dictionary;
    object      transportProperties;
}

// * * * * * * * * * * * * * * * * * * * * * * * * * * * * * * * * * * * * * //

rho1          1;
rho2          1000;
nu1           1e-4;
nu2           1e-4;
g             (0 0 -9.81);

// * * * * * * * * * * * * * * * * * * * * * * * * * * * * * * * * * * * * * //