FoamFile
{
    format      ascii;
    class       dictionary;
    location    "system";
    object      setFieldsDict;
}


defaultFieldValues
(
    volScalarFieldValue alpha.water 0
);

regions
(
    
    boxToCell
    {
        box (-0.1 -0.1 -0.1) (0.6 0.6 0.6);
        fieldValues
        (
            volScalarFieldValue alpha.water 1
        );
    }

    
    boxToFace
    {
        box (-0.1 -0.1 -0.1) (0.6 0.6 0.6);
        fieldValues
        (
            volScalarFieldValue alpha.water 1
        );
    }
);