/*--------------------------------*- C++ -*----------------------------------*\
  =========                 |
  \\      /  F ield         | OpenFOAM: The Open Source CFD Toolbox
   \\    /   O peration     | Website:  https://openfoam.org
    \\  /    A nd           | Version:  10
     \\/     M anipulation  |
\*---------------------------------------------------------------------------*/
FoamFile
{
    format      ascii;
    class       polyBoundaryMesh;
    location    "constant/polyMesh";
    object      boundary;
}
// * * * * * * * * * * * * * * * * * * * * * * * * * * * * * * * * * * * * * //

5
(
    inlet
    {
        type            patch;
        nFaces          100;
        startFace       180;
    }
    outlet
    {
        type            patch;
        nFaces          100;
        startFace       280;
    }
    walls
    {
        type            patch;
        nFaces          10;
        startFace       380;
    }
    cylinder
    {
        type            patch;
        nFaces          10;
        startFace       390;
    }
    defaultFaces
    {
        type            patch;
        nFaces          20;
        startFace       400;
    }
)

// ************************************************************************* //
