FoamFile
{
    version     2.0;
    format      ascii;
    class       dictionary;
    object      blockMeshDict;
}
// * * * * * * * * * * * * * * * * * * * * * * * * * * * * * * * * * * * * * //

convertToMeters 1;

vertices
(
    (-50 25 25)   // 0
    (-50 25 -25)  // 1
    (-500 -75 25) // 2
    (-500 -75 -25) // 3
    (25 0 25)     // 4
    (25 0 -25)    // 5
);

blocks
(
    hex (0 1 2 3 4 5 4 5) (20 20 20) simpleGrading (1 1 1)
);

edges
(
);

boundary
(
    inlet
    {
        type patch;
        faces
        (
            (0 1 3 2)
        );
    }

    outlet
    {
        type patch;
        faces
        (
            (4 5 5 4)
        );
    }

    walls
    {
        type wall;
        faces
        (
            (0 4 4 2)
            (1 5 5 3)
        );
    }
);

mergePatchPairs
(
);

// ************************************************************************* //