FoamFile
{
    version     2.0;
    format      ascii;
    class       dictionary;
    object      controlDict;
}
// * * * * * * * * * * * * * * * * * * * * * * * * * * * * * * * * * * * * * //

application     rhoSimpleFoam;

startFrom       startTime;

startTime       0;

stopAt          endTime;

endTime         500;

deltaT          1;

writeControl    timeStep;

writeInterval   100;

purgeWrite      0;

timePrecision   8;

functions       ();

libs
(
    "libfvMeshTools.so"
);

// * * * * * * * * * * * * * * * * * * * * * * * * * * * * * * * * * * * * * //