FoamFile
{
    version     2.0;
    format      ascii;
    class       dictionary;
    object      setFieldsDict;
}
// * * * * * * * * * * * * * * * * * * * * * * * * * * * * * * * * * * * * * //

fields
(
    {
        name    p;
        type    uniform;
        value   uniform 110000;
    }
    {
        name    U;
        type    uniform;
        value   uniform (0.5 0 0);
    }
    {
        name    T;
        type    uniform;
        value   uniform 1500;
    }
    {
        name    k;
        type    uniform;
        value   uniform 0.1;
    }
    {
        name    epsilon;
        type    uniform;
        value   uniform 1.0;
    }
    {
        name    nut;
        type    uniform;
        value   uniform 0.0;
    }
);

// ************************************************************************* //