FoamFile
{
    format      ascii;
    class       volScalarField;
    object      p;
}


dimensions      [1 -1 -2 0 0 0 0];

internalField   uniform 0;

boundaryField
{
    hotWall
    {
        type            calculated;
        value           uniform 0;
    }

    coldWall
    {
        type            calculated;
        value           uniform 0;
    }
}