/*--------------------------------*- C++ -*----------------------------------*\
  =========                 |
  \\      /  F ield         | OpenFOAM: The Open Source CFD Toolbox
   \\    /   O peration     | Website:  https://openfoam.org
    \\  /    A nd           | Version:  10
     \\/     M anipulation  |
\*---------------------------------------------------------------------------*/
FoamFile
{
    format      ascii;
    class       polyBoundaryMesh;
    location    "constant/polyMesh";
    object      boundary;
}
// * * * * * * * * * * * * * * * * * * * * * * * * * * * * * * * * * * * * * //

5
(
    inlet
    {
        type            patch;
        nFaces          20;
        startFace       760;
    }
    outlet
    {
        type            patch;
        nFaces          20;
        startFace       780;
    }
    sides
    {
        type            patch;
        nFaces          40;
        startFace       800;
    }
    top
    {
        type            empty;
        inGroups        List<word> 1(empty);
        nFaces          400;
        startFace       840;
    }
    bottom
    {
        type            empty;
        inGroups        List<word> 1(empty);
        nFaces          400;
        startFace       1240;
    }
)

// ************************************************************************* //
