FoamFile
{
    format      ascii;
    class       dictionary;
    location    "system";
    object      fvSchemes;
}


ddtSchemes
{
    default         Euler;
}

gradSchemes
{
    default         Gauss linear;
}

divSchemes
{
    default             none;

    div(phi,U)          Gauss linearUpwind grad(U);
    div(phid,p)         Gauss upwind;
    div(phi,k)          Gauss upwind;
    div(phi,epsilon)    Gauss upwind;
    div(phi,R)          Gauss upwind;
    div(R)              Gauss linear;
    div(phi,nuTilda)    Gauss upwind;
    div((nuEff*dev2(T(grad(U))))) Gauss linear;
    div(phi,(p|rho))    Gauss upwind;
}

laplacianSchemes
{
    default         Gauss linear corrected;
}

interpolationSchemes
{
    default         linear;
}

snGradSchemes
{
    default         corrected;
}