FoamFile
{
    format      ascii;
    class       dictionary;
    location    "system";
    object      fvSolution;
}


solvers
{
    p
    {
        solver          GAMG;
        smoother        GaussSeidel;
        tolerance       1e-7;
        relTol          0.1;
    }

    "(U|k|epsilon|R|nuTilda)"
    {
        solver          smoothSolver;
        smoother        symGaussSeidel;
        tolerance       1e-8;
        relTol          0.1;
    }
}

PIMPLE
{
    nNonOrthogonalCorrectors 2;

    residualControl
    {
        p               1e-2;
        U               1e-4;
        "(k|epsilon|R|nuTilda)" 1e-3;
    }
}