FoamFile
{
    format      ascii;
    class       volScalarField;
    location    "0";
    object      k;
}


dimensions      [0 2 -2 0 0 0 0];

internalField   uniform 0.5;

boundaryField
{
    movingWall
    {
        type            kqRWallFunction;
        value           uniform 0.5;
    }

    fixedWalls
    {
        type            kqRWallFunction;
        value           uniform 0.5;
    }

    frontAndBack
    {
        type            empty;
    }
}