/*--------------------------------*- C++ -*----------------------------------*\
  =========                 |
  \\      /  F ield         | OpenFOAM: The Open Source CFD Toolbox
   \\    /   O peration     | Website:  https://openfoam.org
    \\  /    A nd           | Version:  10
     \\/     M anipulation  |
\*---------------------------------------------------------------------------*/
FoamFile
{
    format      ascii;
    class       polyBoundaryMesh;
    location    "constant/polyMesh";
    object      boundary;
}
// * * * * * * * * * * * * * * * * * * * * * * * * * * * * * * * * * * * * * //

6
(
    front
    {
        type            patch;
        nFaces          1024;
        startFace       95232;
    }
    back
    {
        type            patch;
        nFaces          1024;
        startFace       96256;
    }
    bottom
    {
        type            wall;
        inGroups        List<word> 1(wall);
        nFaces          1024;
        startFace       97280;
    }
    top
    {
        type            patch;
        nFaces          1024;
        startFace       98304;
    }
    left
    {
        type            wall;
        inGroups        List<word> 1(wall);
        nFaces          1024;
        startFace       99328;
    }
    right
    {
        type            wall;
        inGroups        List<word> 1(wall);
        nFaces          1024;
        startFace       100352;
    }
)

// ************************************************************************* //
