FoamFile
{
    version     2.0;
    format      ascii;
    class       dictionary;
    object      fvSchemes;
}

ddtSchemes
{
    default         Euler;
}

gradSchemes
{
    default         Gauss linear;
    grad(p)         Gauss linear;
    grad(T)         Gauss linear;
    grad(U)         Gauss linear;
}

divSchemes
{
    default         none;
    div(phi,U)      bounded Gauss linearUpwind grad(U);
    div(phi,T)      bounded Gauss linearUpwind grad(T);
    div(phi,Y)      bounded Gauss linearUpwind grad(Y);
    div(phi,phi)    bounded Gauss linearUpwind grad(phi);
    div(rhoPhi,U)   bounded Gauss linearUpwind grad(U);
    div(rhoPhi,T)   bounded Gauss linearUpwind grad(T);
    div(rhoPhi,Y)   bounded Gauss linearUpwind grad(Y);
}

laplacianSchemes
{
    default         Gauss linear corrected;
}

interpolationSchemes
{
    default         linear;
}

snGradSchemes
{
    default         corrected;
}

wallDist
{
    method          meshWave;
}

fluxRequired
{
    default         no;
    p_rgh           yes;
    p               yes;
}