FoamFile
{
    version     2.0;
    format      ascii;
    class       dictionary;
    location    "system";
    object      decomposeParDict;
}

application     interFoam;

numberOfSubdomains 4;

method          hierarchical;

hierarchicalCoeffs
{
    n               (2 2 1);
    order           xyz;
}

simpleCoeffs
{
    n               (2 2 2);
    delta           0.001;
}

distributed     no;

regions
(
);

// Optional: specify processor directories if using a custom layout
// processor0
// {
//     0;
// }