FoamFile
{
    version     2.0;
    format      ascii;
    class       dictionary;
    location    "system";
    object      setFieldsDict;
}

defaultFieldValues
(
    volScalarFieldValue alpha1 0
);

regions
(
    boxToCell
    {
        box        (0 0 0) (1 0.5 1);
        fieldValues
        (
            volScalarFieldValue alpha1 1
        );
    }
    boxToCell
    {
        box        (0.4 0.4 0) (0.6 0.6 0.2);
        fieldValues
        (
            volScalarFieldValue alpha1 0
        );
    }
);