FoamFile
{
    version     2.0;
    format      ascii;
    class       dictionary;
    object      blockMeshDict;
}

// * * * * * * * * * * * * * * * * * * * * * * * * * * * * * * * * * * * * * //

scale   1;

vertices
(
    (0 0 0)
    (4.1 0 0)
    (4.1 1.0 0)
    (0 1.0 0)
    (0 0 0.1)
    (4.1 0 0.1)
    (4.1 1.0 0.1)
    (0 1.0 0.1)
);

// Domain dimensions: 4.1m x 1.0m x 0.1m
// Coordinates:
// 0: (0, 0, 0)
// 1: (4.1, 0, 0)
// 2: (4.1, 1.0, 0)
// 3: (0, 1.0, 0)
// 4: (0, 0, 0.1)
// 5: (4.1, 0, 0.1)
// 6: (4.1, 1.0, 0.1)
// 7: (0, 1.0, 0.1)

blocks
(
    hex (0 1 2 3 4 5 6 7) (410 100 1) simpleGrading (1 1 1)
);

edges
(
);

boundary
(
    inlet
    {
        type patch;
        faces
        (
            (0 3 7 4)
        );
    }
    outlet
    {
        type patch;
        faces
        (
            (1 2 6 5)
        );
    }
    top
    {
        type patch;
        faces
        (
            (3 2 6 7)
        );
    }
    bottom
    {
        type patch;
        faces
        (
            (0 1 5 4)
        );
    }
    front
    {
        type empty;
        faces
        (
            (0 1 2 3)
        );
    }
    back
    {
        type empty;
        faces
        (
            (4 5 6 7)
        );
    }
);

mergePatchPairs
(
);

// * * * * * * * * * * * * * * * * * * * * * * * * * * * * * * * * * * * * * //