FoamFile
{
    version     2.0;
    format      ascii;
    class       dictionary;
    object      fvSchemes;
}

// * * * * * * * * * * * * * * * * * * * * * * * * * * * * * * * * * * * * * //

ddtSchemes
{
    default         Euler;
}

gradSchemes
{
    default         Gauss linear;
    grad(p)         Gauss linear;
    grad(U)         Gauss linear;
    grad(T)         Gauss linear;
}

divSchemes
{
    default         none;
    div(phi,U)      bounded Gauss linearUpwind grad(U);
    div(phi,T)      bounded Gauss linearUpwind grad(T);
    div(phi,k)      bounded Gauss linearUpwind grad(k);
    div(phi,omega)  bounded Gauss linearUpwind grad(omega);
    div(phi,epsilon) bounded Gauss linearUpwind grad(epsilon);
    div(phi,e)      bounded Gauss linearUpwind grad(e);
    div(phi,R)      bounded Gauss linearUpwind grad(R);
    div(phi,h)      bounded Gauss linearUpwind grad(h);
    div(phi,nuTilda) bounded Gauss linearUpwind grad(nuTilda);
    div(phi,mut)    bounded Gauss linearUpwind grad(mut);
    div(phi,phi)    none;
    div(phi,alphas) bounded Gauss linearUpwind grad(alphas);
    div(phi,phi)    none;
    div(phi,phi)    none;
}

laplacianSchemes
{
    default         Gauss linear corrected;
    laplacian(nu,U) Gauss linear corrected;
    laplacian(T,U)  Gauss linear corrected;
    laplacian(alpha,T) Gauss linear corrected;
    laplacian(k,U)  Gauss linear corrected;
    laplacian(omega,U) Gauss linear corrected;
    laplacian(epsilon,U) Gauss linear corrected;
    laplacian(e,U)  Gauss linear corrected;
    laplacian(R,U)  Gauss linear corrected;
    laplacian(h,U)  Gauss linear corrected;
    laplacian(nuTilda,U) Gauss linear corrected;
    laplacian(mut,U) Gauss linear corrected;
    laplacian(alpha,alphas) Gauss linear corrected;
}

interpolationSchemes
{
    default         linear;
}

snGradSchemes
{
    default         corrected;
}

wallDist
{
    method          meshWave;
}

fluxRequired
{
    default         no;
    p_rgh;
    p;
}