FoamFile
{
    version     2.0;
    format      ascii;
    class       dictionary;
    object      nutProperties;
}

// * * * * * * * * * * * * * * * * * * * * * * * * * * * * * * * * * * * * * //

model         CrossPowerLaw;

nuInf         10;
m             0.4;
n             3;

// * * * * * * * * * * * * * * * * * * * * * * * * * * * * * * * * * * * * * //