FoamFile
{
    version     2.0;
    format      ascii;
    class       volScalarField;
    object      nu;
}
// * * * * * * * * * * * * * * * * * * * * * * * * * * * * * * * * * * * * * //

dimensions      [0 2 -1 0 0 0 0];

internalField   uniform 0.0001;

boundaryField
{
    inlet
    {
        type            calculated;
        value           uniform 0.0001;
    }

    outlet
    {
        type            calculated;
        value           uniform 0.0001;
    }

    top
    {
        type            symmetryPlane;
    }

    bottom
    {
        type            symmetryPlane;
    }

    left
    {
        type            symmetryPlane;
    }

    right
    {
        type            symmetryPlane;
    }

    obstacle
    {
        type            calculated;
        value           uniform 0.0001;
    }
}

// ************************************************************************* //