FoamFile
{
    version     2.0;
    format      ascii;
    class       dictionary;
    object      RASProperties;
}

// * * * * * * * * * * * * * * * * * * * * * * * * * * * * * * * * * * * * * //

RASModel        kOmegaSST;

viscosityModel    Newtonian;

turbulence      on;

printCoeffs     on;

// ************************************************************************* //