FoamFile
{
    version     2.0;
    format      ascii;
    class       dictionary;
    object      combustionProperties;
}
// * * * * * * * * * * * * * * * * * * * * * * * * * * * * * * * * * * * * * //

chemistrySolver  CHEMKIN;

chemistry        yes;

fuel            "CH4";

oxidiser        "O2";

inert           "N2";

fuelInletVelocity 0.2;

airInletVelocity  -0.1;

// ************************************************************************* //