FoamFile
{
    version     2.0;
    format      ascii;
    class       dictionary;
    object      momentumTransport;
}
// * * * * * * * * * * * * * * * * * * * * * * * * * * * * * * * * * * * * * //

simulationType  laminar;

nu              nu [ 0 2 -1 0 0 0 0 ] 1.5e-5;