FoamFile
{
    format      ascii;
    class       dictionary;
    location    "system";
    object      fvSchemes;
}


ddtSchemes
{
    default         steadyState;
}

gradSchemes
{
    default         Gauss linear;
}

divSchemes
{
    default             none;

    div(phi,U)          bounded Gauss upwind;
    div(phi,e)          bounded Gauss upwind;

    turbulence          bounded Gauss upwind;
    div(phi,k)          $turbulence;
    div(phi,epsilon)    $turbulence;

    div(phi,K)          bounded Gauss linear;
    div(phi,(p|rho))    bounded Gauss linear;

    div(((rho*nuEff)*dev2(T(grad(U))))) Gauss linear;
}

laplacianSchemes
{
    default         Gauss linear corrected;
}

interpolationSchemes
{
    default         linear;
}

snGradSchemes
{
    default         corrected;
}