FoamFile
{
    format      ascii;
    class       dictionary;
    object      blockMeshDict;
}


convertToMeters 1;

vertices
(
    (-0.15242 0       -0.005)
    ( 0       0       -0.005)
    ( 0.3048  0.05964 -0.005)
    (-0.15242 0.1524  -0.005)
    ( 0       0.1524  -0.005)
    ( 0.3048  0.1524  -0.005)

    (-0.15242 0        0.005)
    ( 0       0        0.005)
    ( 0.3048  0.05964  0.005)
    (-0.15242 0.1524   0.005)
    ( 0       0.1524   0.005)
    ( 0.3048  0.1524   0.005)

);

blocks
(
    hex (0 1 4 3 6 7 10 9 ) (10 10 1) simpleGrading (1 1 1)
    hex (1 2 5 4 7 8 11 10) (10 10 1) simpleGrading (1 1 1)
);

boundary
(
    inlet
    {
        type patch;
        faces
        (
            (0 3 9 6)
        );
    }
    outlet
    {
        type patch;
        faces
        (
            (2 5 11 8)
        );
    }
    wedge
    {
        type symmetry;
        faces
        (
            (0 1 7 6)
            (1 2 8 7)
            (3 4 10 9)
            (4 5 11 10)
        );
    }
);