FoamFile
{
    version     2.0;
    format      ascii;
    class       volScalarField;
    object      T;
}
// * * * * * * * * * * * * * * * * * * * * * * * * * * * * * * * * * * * * * //

dimensions      [0 0 0 1 0 0 0];

internalField   uniform 300;

boundaryField
{
    inlet
    {
        type            inletOutlet;
        inletValue      uniform 300;
        value           uniform 300;
    }

    outlet
    {
        type            zeroGradient;
    }

    front
    {
        type            zeroGradient;
    }

    back
    {
        type            zeroGradient;
    }

    hotWall
    {
        type            fixedValue;
        value           uniform 310;
    }

    coldWall
    {
        type            fixedValue;
        value           uniform 300;
    }
}