FoamFile
{
    format      ascii;
    class       volScalarField;
    object      e;
}

dimensions      [0 2 -2 0 0 0 0];

internalField   uniform 6.25;

boundaryField
{
    inlet
    {
        type            fixedValue;
        value           uniform 6.25;
    }

    outlet
    {
        type            zeroGradient;
    }

    top
    {
        type            fixedValue;
        value           uniform 6.25;
    }

    bottom
    {
        type            zeroGradient;
    }

    frontAndBack
    {
        type            empty;
    }
}