FoamFile
{
    format      ascii;
    class       dictionary;
    location    "constant";
    object      gravitationalProperties;
}

g               (0 0 -9.81);
