FoamFile
{
    format      ascii;
    class       volVectorField;
    location    "0";
    object      U;
}


dimensions      [0 1 -1 0 0 0 0];

internalField   uniform (0 0 0);

boundaryField
{
    fuel
    {
        type            fixedValue;
        value           uniform (0.1 0 0);
    }
    air
    {
        type            fixedValue;
        value           uniform (-0.1 0 0);
    }
    frontAndBack
    {
        type            empty;
    }
}