FoamFile
{
    version     2.0;
    format      ascii;
    class       dictionary;
    object      blockMeshDict;
}
// * * * * * * * * * * * * * * * * * * * * * * * * * * * * * * * * * * * * * //

convertToMeters 1;

vertices
(
    (0 0 0)
    (9 0 0)
    (9 1 0)
    (0 1 0)
    (0 0 2)
    (9 0 2)
    (9 1 2)
    (0 1 2)
);

blocks
(
    hex (0 1 2 3 4 5 6 7) (20 5 10) simpleGrading (1 1 1)
);

edges
(
);

boundary
(
    inlet
    {
        type patch;
        faces
        (
            (0 3 7 4)
        );
    }

    outlet
    {
        type patch;
        faces
        (
            (1 2 6 5)
        );
    }

    front
    {
        type patch;
        faces
        (
            (2 3 7 6)
        );
    }

    back
    {
        type patch;
        faces
        (
            (0 1 5 4)
        );
    }

    hotWall
    {
        type wall;
        faces
        (
            (3 2 6 7)
        );
    }

    coldWall
    {
        type wall;
        faces
        (
            (0 1 5 4)
        );
    }
);

mergePatchPairs
(
);