FoamFile
{
    format      ascii;
    class       dictionary;
    object      blockMeshDict;
}


convertToMeters 1;

vertices
(
    (-50 25 25)
    (-50 25 -25)
    (-50 -25 -25)
    (-50 -25 25)

    (-500 -75 25)
    (-500 -75 -25)

    (25 0 25)
    (25 0 -25)
);

blocks
(
    hex (0 1 2 3 4 5 6 7)
    (10 10 1)
    simpleGrading (1 1 1)
);

cellZones
(
    bend
    {
        type hex;
        faces (0 1 2 3 4 5 6 7);
    }
);

defaultPatch
{
    type empty;
}

boundary
(
    inlet
    {
        type patch;
        faces
        (
            (0 1 2 3)
        );
    }

    outlet
    {
        type patch;
        faces
        (
            (4 5 6 7)
        );
    }
);