FoamFile
{
    version     2.0;
    format      ascii;
    class       dictionary;
    object      blockMeshDict;
}
// * * * * * * * * * * * * * * * * * * * * * * * * * * * * * * * * * * * * * //

convertToMeters 1;

vertices
(
    (-50 25 25)   // 0
    (-50 25 -25)  // 1
    (-50 -75 25)  // 2
    (-50 -75 -25) // 3
    (25 0 25)     // 4
    (25 0 -25)    // 5
    (-500 -75 25) // 6
    (-500 -75 -25) // 7
);

blocks
(
    hex (0 1 3 2 4 5 7 6) (20 20 20) simpleGrading (1 1 1)
);

edges
(
);

boundary
(
    inlet
    {
        type patch;
        faces
        (
            (0 1 3 2)
        );
    }

    outlet
    {
        type patch;
        faces
        (
            (6 7 5 4)
        );
    }

    walls
    {
        type wall;
        faces
        (
            (0 1 5 4)
            (2 3 7 6)
        );
    }
);

mergePatchPairs
(
);