FoamFile
{
    version     2.0;
    format      ascii;
    class       dictionary;
    object      setFieldsDict;
}
// * * * * * * * * * * * * * * * * * * * * * * * * * * * * * * * * * * * * * //

defaultFieldValues
(
    volScalarFieldValue T 1000
    volScalarFieldValue p 110000
    volVectorFieldValue U (0 0 0)
    volScalarFieldValue k 0.1
    volScalarFieldValue epsilon 0.01
);

fields
(
    volScalarFieldValue T 1000
    volScalarFieldValue p 110000
    volVectorFieldValue U 
    {
        fieldValues
        (
            (inlet (0.5 0 0))
        );
    }
    volScalarFieldValue k 0.1
    volScalarFieldValue epsilon 0.01
);

// ************************************************************************* //