/*--------------------------------*- C++ -*----------------------------------*\
  =========                 |
  \\      /  F ield         | OpenFOAM: The Open Source CFD Toolbox
   \\    /   O peration     | Website:  https://openfoam.org
    \\  /    A nd           | Version:  10
     \\/     M anipulation  |
\*---------------------------------------------------------------------------*/
FoamFile
{
    format      ascii;
    class       polyBoundaryMesh;
    location    "constant/polyMesh";
    object      boundary;
}
// * * * * * * * * * * * * * * * * * * * * * * * * * * * * * * * * * * * * * //

4
(
    movingWall
    {
        type            wall;
        inGroups        List<word> 1(wall);
        nFaces          20;
        startFace       760;
    }
    fixedWalls
    {
        type            wall;
        inGroups        List<word> 1(wall);
        nFaces          60;
        startFace       780;
    }
    emptyFront
    {
        type            empty;
        inGroups        List<word> 1(empty);
        nFaces          400;
        startFace       840;
    }
    emptyBack
    {
        type            empty;
        inGroups        List<word> 1(empty);
        nFaces          400;
        startFace       1240;
    }
)

// ************************************************************************* //
