FoamFile
{
    format      ascii;
    class       dictionary;
    location    "system";
    object      fvSchemes;
}


ddtSchemes
{
    default         Euler;
}

gradSchemes
{
    default         Gauss linear;
}

divSchemes
{
    default             none;

    div(phi,U)          Gauss linearUpwind grad(U);
    div(phi,k)          Gauss upwind;
    div(phi,epsilon)    Gauss upwind;
    div(phi,p)          Gauss linear;

    div((nuEff*dev2(T(grad(U))))) Gauss linear;
}

laplacianSchemes
{
    default         Gauss linear corrected;
}

interpolationSchemes
{
    default         linear;
}

snGradSchemes
{
    default         corrected;
}