FoamFile
{
    format      ascii;
    class       dictionary;
    location    "system";
    object      fvSchemes;
}


ddtSchemes
{
    default         Euler;
}

gradSchemes
{
    default         Gauss linear;
}

divSchemes
{
    default             none;

    div(phi,U)          Gauss limitedLinearV 1;
    div(phid,p)         Gauss limitedLinear 1;
    div(phi,K)          Gauss limitedLinear 1;
    div(phi,e)          Gauss limitedLinear 1;
    div(phi,k)          Gauss upwind;
    div(phi,epsilon)    Gauss upwind;
    div(phi,R)          Gauss limitedLinear 1;
    div(R)              Gauss linear;
    div(phi,omega)      Gauss upwind;
    div(((rho*nuEff)*dev2(T(grad(U))))) Gauss linear;
    div(phi,Yi_h)       Gauss multivariateSelection
    {
        O2                  limitedLinear01 1;
        N2                  limitedLinear01 1;
        h                   limitedLinear 1;
    };
}

laplacianSchemes
{
    default         Gauss linear corrected;
}

interpolationSchemes
{
    default         linear;
}

snGradSchemes
{
    default         corrected;
}