FoamFile
{
    version     2.0;
    format      ascii;
    class       dictionary;
    object      controlDict;
}
// * * * * * * * * * * * * * * * * * * * * * * * * * * * * * * * * * * * * * //

application     pimpleFoam;

startFrom       startTime;

startTime       0;

stopAt          endTime;

endTime         0.5;

deltaT          0.0025;

writeControl    timeStep;

writeInterval   20;

purgeWrite      0;

writeFormat     ascii;

writePrecision  6;

writeFields     yes;

meshModifiable    yes;

functions       ();

adjustTimeStep  no;

maxCo           0.5;

maxAlphaCo      0.5;

maxDeltaT       1;

libs
(
    "libfvMeshTools.so"
);

# includeFunc "createFields.H"

# includeFunc "readTimeControls.H"

# includeFunc "readPIMPLEControls.H"

# includeFunc "readTransportProperties.H"

# includeFunc "readThermophysicalProperties.H"

# includeFunc "readInitialConditions.H"

# includeFunc "readBoundaryConditions.H"

# includeFunc "readFluidProperties.H"

# includeFunc "readSolidProperties.H"

# includeFunc "readFvOptions.H"

# includeFunc "readFvSchemes.H"

# includeFunc "readFvSolution.H"

# includeFunc "readFvMatrix.H"

# includeFunc "readFvField.H"

# includeFunc "readFvMesh.H"

# includeFunc "readFvTime.H"

# includeFunc "readFvIOobject.H"

# includeFunc "readFvIOdictionary.H"

# includeFunc "readFvIOList.H"

# includeFunc "readFvIOField.H"

# includeFunc "readFvIOvolField.H"

# includeFunc "readFvIOsurfaceField.H"

# includeFunc "readFvIOcellField.H"

# includeFunc "readFvIOpointField.H"

# includeFunc "readFvIOfaceField.H"

# includeFunc "readFvIOedgeField.H"

# includeFunc "readFvIOtetraField.H"

# includeFunc "readFvIOhexaField.H"

# includeFunc "readFvIOprismField.H"

# includeFunc "readFvIOpyramidField.H"

# includeFunc "readFvIOwedgeField.H"

# includeFunc "readFvIOcellZoneField.H"

# includeFunc "readFvIOfaceZoneField.H"

# includeFunc "readFvIOpointZoneField.H"

# includeFunc "readFvIOedgeZoneField.H"

# includeFunc "readFvIOtetraZoneField.H"

# includeFunc "readFvIOhexaZoneField.H"

# includeFunc "readFvIOprismZoneField.H"

# includeFunc "readFvIOpyramidZoneField.H"

# includeFunc "readFvIOwedgeZoneField.H"

# includeFunc "readFvIOcellZone.H"

# includeFunc "readFvIOfaceZone.H"

# includeFunc "readFvIOpointZone.H"

# includeFunc "readFvIOedgeZone.H"

# includeFunc "readFvIOtetraZone.H"

# includeFunc "readFvIOhexaZone.H"

# includeFunc "readFvIOprismZone.H"

# includeFunc "readFvIOpyramidZone.H"

# includeFunc "readFvIOwedgeZone.H"

# includeFunc "readFvIOcellZoneList.H"

# includeFunc "readFvIOfaceZoneList.H"

# includeFunc "readFvIOpointZoneList.H"

# includeFunc "readFvIOedgeZoneList.H"

# includeFunc "readFvIOtetraZoneList.H"

# includeFunc "readFvIOhexaZoneList.H"

# includeFunc "readFvIOprismZoneList.H"

# includeFunc "readFvIOpyramidZoneList.H"

# includeFunc "readFvIOwedgeZoneList.H"

# includeFunc "readFvIOcellZoneFieldList.H"

# includeFunc "readFvIOfaceZoneFieldList.H"

# includeFunc "readFvIOpointZoneFieldList.H"

# includeFunc "readFvIOedgeZoneFieldList.H"

# includeFunc "readFvIOtetraZoneFieldList.H"

# includeFunc "readFvIOhexaZoneFieldList.H"

# includeFunc "readFvIOprismZoneFieldList.H"

# includeFunc "readFvIOpyramidZoneFieldList.H"

# includeFunc "readFvIOwedgeZoneFieldList.H"

# includeFunc "readFvIOcellZoneFieldList.H"

# includeFunc "readFvIOfaceZoneFieldList.H"

# includeFunc "readFvIOpointZoneFieldList.H"

# includeFunc "readFvIOedgeZoneFieldList.H"

# includeFunc "readFvIOtetraZoneFieldList.H"

# includeFunc "readFvIOhexaZoneFieldList.H"

# includeFunc "readFvIOprismZoneFieldList.H"

# includeFunc "readFvIOpyramidZoneFieldList.H"

# includeFunc "readFvIOwedgeZoneFieldList.H"

# includeFunc "readFvIOcellZoneFieldList.H"

# includeFunc "readFvIOfaceZoneFieldList.H"

# includeFunc "readFvIOpointZoneFieldList.H"

# includeFunc "readFvIOedgeZoneFieldList.H"

# includeFunc "readFvIOtetraZoneFieldList.H"

# includeFunc "readFvIOhexaZoneFieldList.H"

# includeFunc "readFvIOprismZoneFieldList.H"

# includeFunc "readFvIOpyramidZoneFieldList.H"

# includeFunc "readFvIOwedgeZoneFieldList.H"

# includeFunc "readFvIOcellZoneFieldList.H"

# includeFunc "readFvIOfaceZoneFieldList.H"

# includeFunc "readFvIOpointZoneFieldList.H"

# includeFunc "readFvIOedgeZoneFieldList.H"

# includeFunc "readFvIOtetraZoneFieldList.H"

# includeFunc "readFvIOhexaZoneFieldList.H"

# includeFunc "readFvIOprismZoneFieldList.H"

# includeFunc "readFvIOpyramidZoneFieldList.H"

# includeFunc "readFvIOwedgeZoneFieldList.H"

# includeFunc "readFvIOcellZoneFieldList.H"

# includeFunc "readFvIOfaceZoneFieldList.H"

# includeFunc "readFvIOpointZoneFieldList.H"

# includeFunc "readFvIOedgeZoneFieldList.H"

# includeFunc "readFvIOtetraZoneFieldList.H"

# includeFunc "readFvIOhexaZoneFieldList.H"

# includeFunc "readFvIOprismZoneFieldList.H"

# includeFunc "readFvIOpyramidZoneFieldList.H"

# includeFunc "readFvIOwedgeZoneFieldList.H"

# includeFunc "readFvIOcellZoneFieldList.H"

# includeFunc "readFvIOfaceZoneFieldList.H"

# includeFunc "readFvIOpointZoneFieldList.H"

# includeFunc "readFvIOedgeZoneFieldList.H"

# includeFunc "readFvIOtetraZoneFieldList.H"

# includeFunc "readFvIOhexaZoneFieldList.H"

# includeFunc "readFvIOprismZoneFieldList.H"

# includeFunc "readFvIOpyramidZoneFieldList.H"

# includeFunc "readFvIOwedgeZoneFieldList.H"

# includeFunc "readFvIOcellZoneFieldList.H"

# includeFunc "readFvIOfaceZoneFieldList.H"

# includeFunc "readFvIOpointZoneFieldList.H"

# includeFunc "readFvIOedgeZoneFieldList.H"

# includeFunc "readFvIOtetraZoneFieldList.H"

# includeFunc "readFvIOhexaZoneFieldList.H"

# includeFunc "readFvIOprismZoneFieldList.H"

# includeFunc "readFvIOpyramidZoneFieldList.H"

# includeFunc "readFvIOwedgeZoneFieldList.H"

# includeFunc "readFvIOcellZoneFieldList.H"

# includeFunc "readFvIOfaceZoneFieldList.H"

# includeFunc "readFvIOpointZoneFieldList.H"

# includeFunc "readFvIOedgeZoneFieldList.H"

# includeFunc "readFvIOtetraZoneFieldList.H"

# includeFunc "readFvIOhexaZoneFieldList.H"

# includeFunc "readFvIOprismZoneFieldList.H"

# includeFunc "readFvIOpyramidZoneFieldList.H"

# includeFunc "readFvIOwedgeZoneFieldList.H"

# includeFunc "readFvIOcellZoneFieldList.H"

# includeFunc "readFvIOfaceZoneFieldList.H"

# includeFunc "readFvIOpointZoneFieldList.H"

# includeFunc "readFvIOedgeZoneFieldList.H"

# includeFunc "readFvIOtetraZoneFieldList.H"

# includeFunc "readFvIOhexaZoneFieldList.H"

# includeFunc "readFvIOprismZoneFieldList.H"

# includeFunc "readFvIOpyramidZoneFieldList.H"

# includeFunc "readFvIOwedgeZoneFieldList.H"

# includeFunc "readFvIOcellZoneFieldList.H"

# includeFunc "readFvIOfaceZoneFieldList.H"

# includeFunc "readFvIOpointZoneFieldList.H"

# includeFunc "readFvIOedgeZoneFieldList.H"

# includeFunc "readFvIOtetraZoneFieldList.H"

# includeFunc "readFvIOhexaZoneFieldList.H"

# includeFunc "readFvIOprismZoneFieldList.H"

# includeFunc "readFvIOpyramidZoneFieldList.H"

# includeFunc "readFvIOwedgeZoneFieldList.H"

# includeFunc "readFvIOcellZoneFieldList.H"

# includeFunc "readFvIOfaceZoneFieldList.H"

# includeFunc "readFvIOpointZoneFieldList.H"

# includeFunc "readFvIOedgeZoneFieldList.H"

# includeFunc "readFvIOtetraZoneFieldList.H"

# includeFunc "readFvIOhexaZoneFieldList.H"

# includeFunc "readFvIOprismZoneFieldList.H"

# includeFunc "readFvIOpyramidZoneFieldList.H"

# includeFunc "readFvIOwedgeZoneFieldList.H"

# includeFunc "readFvIOcellZoneFieldList.H"

# includeFunc "readFvIOfaceZoneFieldList.H"

# includeFunc "readFvIOpointZoneFieldList.H"

# includeFunc "readFvIOedgeZoneFieldList.H"

# includeFunc "readFvIOtetraZoneFieldList.H"

# includeFunc "readFvIOhexaZoneFieldList.H"

# includeFunc "readFvIOprismZoneFieldList.H"

# includeFunc "readFvIOpyramidZoneFieldList.H"

# includeFunc "readFvIOwedgeZoneFieldList.H"

# includeFunc "readFvIOcellZoneFieldList.H"

# includeFunc "readFvIOfaceZoneFieldList.H"

# includeFunc "readFvIOpointZoneFieldList.H"

# includeFunc "readFvIOedgeZoneFieldList.H"

# includeFunc "readFvIOtetraZoneFieldList.H"

# includeFunc "readFvIOhexaZoneFieldList.H"

# includeFunc "readFvIOprismZoneFieldList.H"

# includeFunc "readFvIOpyramidZoneFieldList.H"

# includeFunc "readFvIOwedgeZoneFieldList.H"

# includeFunc "readFvIOcellZoneFieldList.H"

# includeFunc "readFvIOfaceZoneFieldList.H"

# includeFunc "readFvIOpointZoneFieldList.H"

# includeFunc "readFvIOedgeZoneFieldList.H"

# includeFunc "readFvIOtetraZoneFieldList.H"

# includeFunc "readFvIOhexaZoneFieldList.H"

# includeFunc "readFvIOprismZoneFieldList.H"

# includeFunc "readFvIOpyramidZoneFieldList.H"

# includeFunc "readFvIOwedgeZoneFieldList.H"

# includeFunc "readFvIOcellZoneFieldList.H"

# includeFunc "readFvIOfaceZoneFieldList.H"

# includeFunc "readFvIOpointZoneFieldList.H"

# includeFunc "readFvIOedgeZoneFieldList.H"

# includeFunc "readFvIOtetraZoneFieldList.H"

# includeFunc "readFvIOhexaZoneFieldList.H"

# includeFunc "readFvIOprismZoneFieldList.H"

# includeFunc "readFvIOpyramidZoneFieldList.H"

# includeFunc "readFvIOwedgeZoneFieldList.H"

# includeFunc "readFvIOcellZoneFieldList.H"

# includeFunc "readFvIOfaceZoneFieldList.H"

# includeFunc "readFvIOpointZoneFieldList.H"

# includeFunc "readFvIOedgeZoneFieldList.H"

# includeFunc "readFvIOtetraZoneFieldList.H"

# includeFunc "readFvIOhexaZoneFieldList.H"

# includeFunc "readFvIOprismZoneFieldList.H"

# includeFunc "readFvIOpyramidZoneFieldList.H"

# includeFunc "readFvIOwedgeZoneFieldList.H"

# includeFunc "readFvIOcellZoneFieldList.H"

# includeFunc "readFvIOfaceZoneFieldList.H"

# includeFunc "readFvIOpointZoneFieldList.H"

# includeFunc "readFvIOedgeZoneFieldList.H"

# includeFunc "readFvIOtetraZoneFieldList.H"

# includeFunc "readFvIOhexaZoneFieldList.H"

# includeFunc "readFvIOprismZoneFieldList.H"

# includeFunc "readFvIOpyramidZoneFieldList.H"

# includeFunc "readFvIOwedgeZoneFieldList.H"

# includeFunc "readFvIOcellZoneFieldList.H"

# includeFunc "readFvIOfaceZoneFieldList.H"

# includeFunc "readFvIOpointZoneFieldList.H"

# includeFunc "readFvIOedgeZoneFieldList.H"

# includeFunc "readFvIOtetraZoneFieldList.H"

# includeFunc "readFvIOhexaZoneFieldList.H"

# includeFunc "readFvIOprismZoneFieldList.H"

# includeFunc "readFvIOpyramidZoneFieldList.H"

# includeFunc "readFvIOwedgeZoneFieldList.H"

# includeFunc "readFvIOcellZoneFieldList.H"

# includeFunc "readFvIOfaceZoneFieldList.H"

# includeFunc "readFvIOpointZoneFieldList.H"

# includeFunc "readFvIOedgeZoneFieldList.H"

# includeFunc "readFvIOtetraZoneFieldList.H"

# includeFunc "readFvIOhexaZoneFieldList.H"

# includeFunc "readFvIOprismZoneFieldList.H"

# includeFunc "readFvIOpyramidZoneFieldList.H"

# includeFunc "readFvIOwedgeZoneFieldList.H"

# includeFunc "readFvIOcellZoneFieldList.H"

# includeFunc "readFvIOfaceZoneFieldList.H"

# includeFunc "readFvIOpointZoneFieldList.H"

# includeFunc "readFvIOedgeZoneFieldList.H"

# includeFunc "readFvIOtetraZoneFieldList.H"

# includeFunc "readFvIOhexaZoneFieldList.H"

# includeFunc "readFvIOprismZoneFieldList.H"

# includeFunc "readFvIOpyramidZoneFieldList.H"

# includeFunc "readFvIOwedgeZoneFieldList.H"

# includeFunc "readFvIOcellZoneFieldList.H"

# includeFunc "readFvIOfaceZoneFieldList.H"

# includeFunc "readFvIOpointZoneFieldList.H"

# includeFunc "readFvIOedgeZoneFieldList.H"

# includeFunc "readFvIOtetraZoneFieldList.H"

# includeFunc "readFvIOhexaZoneFieldList.H"

# includeFunc "readFvIOprismZoneFieldList.H"

# includeFunc "readFvIOpyramidZoneFieldList.H"

# includeFunc "readFvIOwedgeZoneFieldList.H"

# includeFunc "readFvIOcellZoneFieldList.H"

# includeFunc "readFvIOfaceZoneFieldList.H"

# includeFunc "readFvIOpointZoneFieldList.H"

# includeFunc "readFvIOedgeZoneFieldList.H"

# includeFunc "readFvIOtetraZoneFieldList.H"

# includeFunc "readFvIOhexaZoneFieldList.H"

# includeFunc "readFvIOprismZoneFieldList.H"

# includeFunc "readFvIOpyramidZoneFieldList.H"

# includeFunc "readFvIOwedgeZoneFieldList.H"

# includeFunc "readFvIOcellZoneFieldList.H"

# includeFunc "readFvIOfaceZoneFieldList.H"

# includeFunc "readFvIOpointZoneFieldList.H"

# includeFunc "readFvIOedgeZoneFieldList.H"

# includeFunc "readFvIOtetraZoneFieldList.H"

# includeFunc "readFvIOhexaZoneFieldList.H"

# includeFunc "readFvIOprismZoneFieldList.H"

# includeFunc "readFvIOpyramidZoneFieldList.H"

# includeFunc "readFvIOwedgeZoneFieldList.H"

# includeFunc "readFvIOcellZoneFieldList.H"

# includeFunc "readFvIOfaceZoneFieldList.H"

# includeFunc "readFvIOpointZoneFieldList.H"

# includeFunc "readFvIOedgeZoneFieldList.H"

# includeFunc "readFvIOtetraZoneFieldList.H"

# includeFunc "readFvIOhexaZoneFieldList.H"

# includeFunc "readFvIOprismZoneFieldList.H"

# includeFunc "readFvIOpyramidZoneFieldList.H"

# includeFunc "readFvIOwedgeZoneFieldList.H"

# includeFunc "readFvIOcellZoneFieldList.H"

# includeFunc "readFvIOfaceZoneFieldList.H"

# includeFunc "readFvIOpointZoneFieldList.H"

# includeFunc "readFvIOedgeZoneFieldList.H"

# includeFunc "readFvIOtetraZoneFieldList.H"

# includeFunc "readFvIOhexaZoneFieldList.H"

# includeFunc "readFvIOprismZoneFieldList.H"

# includeFunc "readFvIOpyramidZoneFieldList.H"

# includeFunc "readFvIOwedgeZoneFieldList.H"

# includeFunc "readFvIOcellZoneFieldList.H"

# includeFunc "readFvIOfaceZoneFieldList.H"

# includeFunc "readFvIOpointZoneFieldList.H"

# includeFunc "readFvIOedgeZoneFieldList.H"

# includeFunc "readFvIOtetraZoneFieldList.H"

# includeFunc "readFvIOhexaZoneFieldList.H"

# includeFunc "readFvIOprismZoneFieldList.H"

# includeFunc "readFvIOpyramidZoneFieldList.H"

# includeFunc "readFvIOwedgeZoneFieldList.H"

# includeFunc "readFvIOcellZoneFieldList.H"

# includeFunc "readFvIOfaceZoneFieldList.H"

# includeFunc "readFvIOpointZoneFieldList.H"

# includeFunc "readFvIOedgeZoneFieldList.H"

# includeFunc "readFvIOtetraZoneFieldList.H"

# includeFunc "readFvIOhexaZoneFieldList.H"

# includeFunc "readFvIOprismZoneFieldList.H"

# includeFunc "readFvIOpyramidZoneFieldList.H"

# includeFunc "readFvIOwedgeZoneFieldList.H"

# includeFunc "readFvIOcellZoneFieldList.H"

# includeFunc "readFvIOfaceZoneFieldList.H"

# includeFunc "readFvIOpointZoneFieldList.H"

# includeFunc "readFvIOedgeZoneFieldList.H"

# includeFunc "readFvIOtetraZoneFieldList.H"

# includeFunc "readFvIOhexaZoneFieldList.H"

# includeFunc "readFvIOprismZoneFieldList.H"

# includeFunc "readFvIOpyramidZoneFieldList.H"

# includeFunc "readFvIOwedgeZoneFieldList.H"

# includeFunc "readFvIOcellZoneFieldList.H"

# includeFunc "readFvIOfaceZoneFieldList.H"

# includeFunc "readFvIOpointZoneFieldList.H"

# includeFunc "readFvIOedgeZoneFieldList.H"

# includeFunc "readFvIOtetraZoneFieldList.H"

# includeFunc "readFvIOhexaZoneFieldList.H"

# includeFunc "readFvIOprismZoneFieldList.H"

# includeFunc "readFvIOpyramidZoneFieldList.H"

# includeFunc "readFvIOwedgeZoneFieldList.H"

# includeFunc "readFvIOcellZoneFieldList.H"

# includeFunc "readFvIOfaceZoneFieldList.H"

# includeFunc "readFvIOpointZoneFieldList.H"

# includeFunc "readFvIOedgeZoneFieldList.H"

# includeFunc "readFvIOtetraZoneFieldList.H"

# includeFunc "readFvIOhexaZoneFieldList.H"

# includeFunc "readFvIOprismZoneFieldList.H"

# includeFunc "readFvIOpyramidZoneFieldList.H"

# includeFunc "readFvIOwedgeZoneFieldList.H"

# includeFunc "readFvIOcellZoneFieldList.H"

# includeFunc "readFvIOfaceZoneFieldList.H"

# includeFunc "readFvIOpointZoneFieldList.H"

# includeFunc "readFvIOedgeZoneFieldList.H"

# includeFunc "readFvIOtetraZoneFieldList.H"

# includeFunc "readFvIOhexaZoneFieldList.H"

# includeFunc "readFvIOprismZoneFieldList.H"

# includeFunc "readFvIOpyramidZoneFieldList.H"

# includeFunc "readFvIOwedgeZoneFieldList.H"

# includeFunc "readFvIOcellZoneFieldList.H"

# includeFunc "readFvIOfaceZoneFieldList.H"

# includeFunc "readFvIOpointZoneFieldList.H"

# includeFunc "readFvIOedgeZoneFieldList.H"

# includeFunc "readFvIOtetraZoneFieldList.H"

# includeFunc "readFvIOhexaZoneFieldList.H"

# includeFunc "readFvIOprismZoneFieldList.H"

# includeFunc "readFvIOpyramidZoneFieldList.H"

# includeFunc "readFvIOwedgeZoneFieldList.H"

# includeFunc "readFvIOcellZoneFieldList.H"

# includeFunc "readFvIOfaceZoneFieldList.H"

# includeFunc "readFvIOpointZoneFieldList.H"

# includeFunc "readFvIOedgeZoneFieldList.H"

# includeFunc "readFvIOtetraZoneFieldList.H"

# includeFunc "readFvIOhexaZoneFieldList.H"

# includeFunc "readFvIOprismZoneFieldList.H"

# includeFunc "readFvIOpyramidZoneFieldList.H"

# includeFunc "readFvIOwedgeZoneFieldList.H"

# includeFunc "readFvIOcellZoneFieldList.H"

# includeFunc "readFvIOfaceZoneFieldList.H"

# includeFunc "readFvIOpointZoneFieldList.H"

# includeFunc "readFvIOedgeZoneFieldList.H"

# includeFunc "readFvIOtetraZoneFieldList.H"

# includeFunc "readFvIOhexaZoneFieldList.H"

# includeFunc "readFvIOprismZoneFieldList.H"

# includeFunc "readFvIOpyramidZoneFieldList.H"

# includeFunc "readFvIOwedgeZoneFieldList.H"

# includeFunc "readFvIOcellZoneFieldList.H"

# includeFunc "readFvIOfaceZoneFieldList.H"

# includeFunc "readFvIOpointZoneFieldList.H"

# includeFunc "readFvIOedgeZoneFieldList.H"

# includeFunc "readFvIOtetraZoneFieldList.H"

# includeFunc "readFvIOhexaZoneFieldList.H"

# includeFunc "readFvIOprismZoneFieldList.H"

# includeFunc "readFvIOpyramidZoneFieldList.H"

# includeFunc "readFvIOwedgeZoneFieldList.H"

# includeFunc "readFvIOcellZoneFieldList.H"

# includeFunc "readFvIOfaceZoneFieldList.H"

# includeFunc "readFvIOpointZoneFieldList.H"

# includeFunc "readFvIOedgeZoneFieldList.H"

# includeFunc "readFvIOtetraZoneFieldList.H"

# includeFunc "readFvIOhexaZoneFieldList.H"

# includeFunc "readFvIOprismZoneFieldList.H"

# includeFunc "readFvIOpyramidZoneFieldList.H"

# includeFunc "readFvIOwedgeZoneFieldList.H"

# includeFunc "readFvIOcellZoneFieldList.H"

# includeFunc "readFvIOfaceZoneFieldList.H"

# includeFunc "readFvIOpointZoneFieldList.H"

# includeFunc "readFvIOedgeZoneFieldList.H"

# includeFunc "readFvIOtetraZoneFieldList.H"

# includeFunc "readFvIOhexaZoneFieldList.H"

# includeFunc "readFvIOprismZoneFieldList.H"

# includeFunc "readFvIOpyramidZoneFieldList.H"

# includeFunc "readFvIOwedgeZoneFieldList.H"

# includeFunc "readFvIOcellZoneFieldList.H"

# includeFunc "readFvIOfaceZoneFieldList.H"

# includeFunc "readFvIOpointZoneFieldList.H"

# includeFunc "readFvIOedgeZoneFieldList.H"

# includeFunc "readFvIOtetraZoneFieldList.H"

# includeFunc "readFvIOhexaZoneFieldList.H"

# includeFunc "readFvIOprismZoneFieldList.H"

# includeFunc "readFvIOpyramidZoneFieldList.H"

# includeFunc "readFvIOwedgeZoneFieldList.H"

# includeFunc "readFvIOcellZoneFieldList.H"

# includeFunc "readFvIOfaceZoneFieldList.H"

# includeFunc "readFvIOpointZoneFieldList.H"

# includeFunc "readFvIOedgeZoneFieldList.H"

# includeFunc "readFvIOtetraZoneFieldList.H"

# includeFunc "readFvIOhexaZoneFieldList.H"

# includeFunc "readFvIOprismZoneFieldList.H"

# includeFunc "readFvIOpyramidZoneFieldList.H"

# includeFunc "readFvIOwedgeZoneFieldList.H"

# includeFunc "readFvIOcellZoneFieldList.H"

# includeFunc "readFvIOfaceZoneFieldList.H"

# includeFunc "readFvIOpointZoneFieldList.H"

# includeFunc "readFvIOedgeZoneFieldList.H"

# includeFunc "readFvIOtetraZoneFieldList.H"

# includeFunc "readFvIOhexaZoneFieldList.H"

# includeFunc "readFvIOprismZoneFieldList.H"

# includeFunc "readFvIOpyramidZoneFieldList.H"

# includeFunc "readFvIOwedgeZoneFieldList.H"

# includeFunc "readFvIOcellZoneFieldList.H"

# includeFunc "readFvIOfaceZoneFieldList.H"

# includeFunc "readFvIOpointZoneFieldList.H"

# includeFunc "readFvIOedgeZoneFieldList.H"

# includeFunc "readFvIOtetraZoneFieldList.H"

# includeFunc "readFvIOhexaZoneFieldList.H"

# includeFunc "readFvIOprismZoneFieldList.H"

# includeFunc "readFvIOpyramidZoneFieldList.H"

# includeFunc "readFvIOwedgeZoneFieldList.H"

# includeFunc "readFvIOcellZoneFieldList.H"

# includeFunc "readFvIOfaceZoneFieldList.H"

# includeFunc "readFvIOpointZoneFieldList.H"

# includeFunc "readFvIOedgeZoneFieldList.H"

# includeFunc "readFvIOtetraZoneFieldList.H"

# includeFunc "readFvIOhexaZoneFieldList.H"

# includeFunc "readFvIOprismZoneFieldList.H"

# includeFunc "readFvIOpyramidZoneFieldList.H"

# includeFunc "readFvIOwedgeZoneFieldList.H"

# includeFunc "readFvIOcellZoneFieldList.H"

# includeFunc "readFvIOfaceZoneFieldList.H"

# includeFunc "readFvIOpointZoneFieldList.H"

# includeFunc "readFvIOedgeZoneFieldList.H"

# includeFunc "readFvIOtetraZoneFieldList.H"

# includeFunc "readFvIOhexaZoneFieldList.H"

# includeFunc "readFvIOprismZoneFieldList.H"

# includeFunc "readFvIOpyramidZoneFieldList.H"

# includeFunc "readFvIOwedgeZoneFieldList.H"

# includeFunc "readFvIOcellZoneFieldList.H"

# includeFunc "readFvIOfaceZoneFieldList.H"

# includeFunc "readFvIOpointZoneFieldList.H"

# includeFunc "readFvIOedgeZoneFieldList.H"

# includeFunc "readFvIOtetraZoneFieldList.H"

# includeFunc "readFvIOhexaZoneFieldList.H"

# includeFunc "readFvIOprismZoneFieldList.H"

# includeFunc "readFvIOpyramidZoneFieldList.H"

# includeFunc "readFvIOwedgeZoneFieldList.H"

# includeFunc "readFvIOcellZoneFieldList.H"

# includeFunc "readFvIOfaceZoneFieldList.H"

# includeFunc "readFvIOpointZoneFieldList.H"

# includeFunc "readFvIOedgeZoneFieldList.H"

# includeFunc "readFvIOtetraZoneFieldList.H"

# includeFunc "readFvIOhexaZoneFieldList.H"

# includeFunc "readFvIOprismZoneFieldList.H"

# includeFunc "readFvIOpyramidZoneFieldList.H"

# includeFunc "readFvIOwedgeZoneFieldList.H"

# includeFunc "readFvIOcellZoneFieldList.H"

# includeFunc "readFvIOfaceZoneFieldList.H"

# includeFunc "readFvIOpointZoneFieldList.H"

# includeFunc "readFvIOedgeZoneFieldList.H"

# includeFunc "readFvIOtetraZoneFieldList.H"

# includeFunc "readFvIOhexaZoneFieldList.H"

# includeFunc "readFvIOprismZoneFieldList.H"

# includeFunc "readFvIOpyramidZoneFieldList.H"

# includeFunc "readFvIOwedgeZoneFieldList.H"

# includeFunc "readFvIOcellZoneFieldList.H"

# includeFunc "readFvIOfaceZoneFieldList.H"

# includeFunc "readFvIOpointZoneFieldList.H"

# includeFunc "readFvIOedgeZoneFieldList.H"

# includeFunc "readFvIOtetraZoneFieldList.H"

# includeFunc "readFvIOhexaZoneFieldList.H"

# includeFunc "readFvIOprismZoneFieldList.H"

# includeFunc "readFvIOpyramidZoneFieldList.H"

# includeFunc "readFvIOwedgeZoneFieldList.H"

# includeFunc "readFvIOcellZoneFieldList.H"

# includeFunc "readFvIOfaceZoneFieldList.H"

# includeFunc "readFvIOpointZoneFieldList.H"

# includeFunc "readFvIOedgeZoneFieldList.H"

# includeFunc "readFvIOtetraZoneFieldList.H"

# includeFunc "readFvIOhexaZoneFieldList.H"

# includeFunc "readFvIOprismZoneFieldList.H"

# includeFunc "readFvIOpyramidZoneFieldList.H"

# includeFunc "readFvIOwedgeZoneFieldList.H"

# includeFunc "readFvIOcellZoneFieldList.H"

# includeFunc "readFvIOfaceZoneFieldList.H"

# includeFunc "readFvIOpointZoneFieldList.H"

# includeFunc "readFvIOedgeZoneFieldList.H"

# includeFunc "readFvIOtetraZoneFieldList.H"

# includeFunc "readFvIOhexaZoneFieldList.H"

# includeFunc "readFvIOprismZoneFieldList.H"

# includeFunc "readFvIOpyramidZoneFieldList.H"

# includeFunc "readFvIOwedgeZoneFieldList.H"

# includeFunc "readFvIOcellZoneFieldList.H"

# includeFunc "readFvIOfaceZoneFieldList.H"

# includeFunc "readFvIOpointZoneFieldList.H"

# includeFunc "readFvIOedgeZoneFieldList.H"

# includeFunc "readFvIOtetraZoneFieldList.H"

# includeFunc "readFvIOhexaZoneFieldList.H"

# includeFunc "readFvIOprismZoneFieldList.H"

# includeFunc "readFvIOpyramidZoneFieldList.H"

# includeFunc "readFvIOwedgeZoneFieldList.H"

# includeFunc "readFvIOcellZoneFieldList.H"

# includeFunc "readFvIOfaceZoneFieldList.H"

# includeFunc "readFvIOpointZoneFieldList.H"

# includeFunc "readFvIOedgeZoneFieldList.H"

# includeFunc "readFvIOtetraZoneFieldList.H"

# includeFunc "readFvIOhexaZoneFieldList.H"

# includeFunc "readFvIOprismZoneFieldList.H"

# includeFunc "readFvIOpyramidZoneFieldList.H"

# includeFunc "readFvIOwedgeZoneFieldList.H"

# includeFunc "readFvIOcellZoneFieldList.H"

# includeFunc "readFvIOfaceZoneFieldList.H"

# includeFunc "readFvIOpointZoneFieldList.H"

# includeFunc "readFvIOedgeZoneFieldList.H"

# includeFunc "readFvIOtetraZoneFieldList.H"

# includeFunc "readFvIOhexaZoneFieldList.H"

# includeFunc "readFvIOprismZoneFieldList.H"

# includeFunc "readFvIOpyramidZoneFieldList.H"

# includeFunc "readFvIOwedgeZoneFieldList.H"

# includeFunc "readFvIOcellZoneFieldList.H"

# includeFunc "readFvIOfaceZoneFieldList.H"

# includeFunc "readFvIOpointZoneFieldList.H"

# includeFunc "readFvIOedgeZoneFieldList.H"

# includeFunc "readFvIOtetraZoneFieldList.H"

# includeFunc "readFvIOhexaZoneFieldList.H"

# includeFunc "readFvIOprismZoneFieldList.H"

# includeFunc "readFvIOpyramidZoneFieldList.H"

# includeFunc "readFvIOwedgeZoneFieldList.H"

# includeFunc "readFvIOcellZoneFieldList.H"

# includeFunc "readFvIOfaceZoneFieldList.H"

# includeFunc "readFvIOpointZoneFieldList.H"

# includeFunc "readFvIOedgeZoneFieldList.H"

# includeFunc "readFvIOtetraZoneFieldList.H"

# includeFunc "readFvIOhexaZoneFieldList.H"

# includeFunc "readFvIOprismZoneFieldList.H"

# includeFunc "readFvIOpyramidZoneFieldList.H"

# includeFunc "readFvIOwedgeZoneFieldList.H"

# includeFunc "readFvIOcellZoneFieldList.H"

# includeFunc "readFvIOfaceZoneFieldList.H"

# includeFunc "readFvIOpointZoneFieldList.H"

# includeFunc "readFvIOedgeZoneFieldList.H"

# includeFunc "readFvIOtetraZoneFieldList.H"

# includeFunc "readFvIOhexaZoneFieldList.H"

# includeFunc "readFvIOprismZoneFieldList.H"

# includeFunc "readFvIOpyramidZoneFieldList.H"

# includeFunc "readFvIOwedgeZoneFieldList.H"

# includeFunc "readFvIOcellZoneFieldList.H"

# includeFunc "readFvIOfaceZoneFieldList.H"

# includeFunc "readFvIOpointZoneFieldList.H"

# includeFunc "readFvIOedgeZoneFieldList.H"

# includeFunc "readFvIOtetraZoneFieldList.H"

# includeFunc "readFvIOhexaZoneFieldList.H"

# includeFunc "readFvIOprismZoneFieldList.H"

# includeFunc "readFvIOpyramidZoneFieldList.H"

# includeFunc "readFvIOwedgeZoneFieldList.H"

# includeFunc "readFvIOcellZoneFieldList.H"

# includeFunc "readFvIOfaceZoneFieldList.H"

# includeFunc "readFvIOpointZoneFieldList.H"

# includeFunc "readFvIOedgeZoneFieldList.H"

# includeFunc "readFvIOtetraZoneFieldList.H"

# includeFunc "readFvIOhexaZoneFieldList.H"

# includeFunc "readFvIOprismZoneFieldList.H"

# includeFunc "readFvIOpyramidZoneFieldList.H"

# includeFunc "readFvIOwedgeZoneFieldList.H"

# includeFunc "readFvIOcellZoneFieldList.H"

# includeFunc "readFvIOfaceZoneFieldList.H"

# includeFunc "readFvIOpointZoneFieldList.H"

# includeFunc "readFvIOedgeZoneFieldList.H"

# includeFunc "readFvIOtetraZoneFieldList.H"

# includeFunc "readFvIOhexaZoneFieldList.H"

# includeFunc "readFvIOprismZoneFieldList.H"

# includeFunc "readFvIOpyramidZoneFieldList.H"

# includeFunc "readFvIOwedgeZoneFieldList.H"

# includeFunc "readFvIOcellZoneFieldList.H"

# includeFunc "readFvIOfaceZoneFieldList.H"

# includeFunc "readFvIOpointZoneFieldList.H"

# includeFunc "readFvIOedgeZoneFieldList.H"

# includeFunc "readFvIOtetraZoneFieldList.H"

# includeFunc "readFvIOhexaZoneFieldList.H"

# includeFunc "readFvIOprismZoneFieldList.H"

# includeFunc "readFvIOpyramidZoneFieldList.H"

# includeFunc "readFvIOwedgeZoneFieldList.H"

# includeFunc "readFvIOcellZoneFieldList.H"

# includeFunc "readFvIOfaceZoneFieldList.H"

# includeFunc "readFvIOpointZoneFieldList.H"

# includeFunc "readFvIOedgeZoneFieldList.H"

# includeFunc "readFvIOtetraZoneFieldList.H"

# includeFunc "readFvIOhexaZoneFieldList.H"

# includeFunc "readFvIOprismZoneFieldList.H"

# includeFunc "readFvIOpyramidZoneFieldList.H"

# includeFunc "readFvIOwedgeZoneFieldList.H"

# includeFunc "readFvIOcellZoneFieldList.H"

# includeFunc "readFvIOfaceZoneFieldList.H"

# includeFunc "readFvIOpointZoneFieldList.H"

# includeFunc "readFvIOedgeZoneFieldList.H"

# includeFunc "readFvIOtetraZoneFieldList.H"

# includeFunc "readFvIOhexaZoneFieldList.H"

# includeFunc "readFvIOprismZoneFieldList.H"

# includeFunc "readFvIOpyramidZoneFieldList.H"

# includeFunc "readFvIOwedgeZoneFieldList.H"

# includeFunc "readFvIOcellZoneFieldList.H"

# includeFunc "readFvIOfaceZoneFieldList.H"

# includeFunc "readFvIOpointZoneFieldList.H"

# includeFunc "readFvIOedgeZoneFieldList.H"

# includeFunc "readFvIOtetraZoneFieldList.H"

# includeFunc "readFvIOhexaZoneFieldList.H"

# includeFunc "readFvIOprismZoneFieldList.H"

# includeFunc "readFvIOpyramidZoneFieldList.H"

# includeFunc "readFvIOwedgeZoneFieldList.H"

# includeFunc "readFvIOcellZoneFieldList.H"

# includeFunc "readFvIOfaceZoneFieldList.H"

# includeFunc "readFvIOpointZoneFieldList.H"

# includeFunc "readFvIOedgeZoneFieldList.H"

# includeFunc "readFvIOtetraZoneFieldList.H"

# includeFunc "readFvIOhexaZoneFieldList.H"

# includeFunc "readFvIOprismZoneFieldList.H"

# includeFunc "readFvIOpyramidZoneFieldList.H"

# includeFunc "readFvIOwedgeZoneFieldList.H"

# includeFunc "readFvIOcellZoneFieldList.H"

# includeFunc "readFvIOfaceZoneFieldList.H"

# includeFunc "readFvIOpointZoneFieldList.H"

# includeFunc "readFvIOedgeZoneFieldList.H"

# includeFunc "readFvIOtetraZoneFieldList.H"

# includeFunc "readFvIOhexaZoneFieldList.H"

# includeFunc "readFvIOprismZoneFieldList.H"

# includeFunc "readFvIOpyramidZoneFieldList.H"

# includeFunc "readFvIOwedgeZoneFieldList.H"

# includeFunc "readFvIOcellZoneFieldList.H"

# includeFunc "readFvIOfaceZoneFieldList.H"

# includeFunc "readFvIOpointZoneFieldList.H"

# includeFunc "readFvIOedgeZoneFieldList.H"

# includeFunc "readFvIOtetraZoneFieldList.H"

# includeFunc "readFvIOhexaZoneFieldList.H"

# includeFunc "readFvIOprismZoneFieldList.H"

# includeFunc "readFvIOpyramidZoneFieldList.H"

# includeFunc "readFvIOwedgeZoneFieldList.H"

# includeFunc "readFvIOcellZoneFieldList.H"

# includeFunc "readFvIOfaceZoneFieldList.H"

# includeFunc "readFvIOpointZoneFieldList.H"

# includeFunc "readFvIOedgeZoneFieldList.H"

# includeFunc "readFvIOtetraZoneFieldList.H"

# includeFunc "readFvIOhexaZoneFieldList.H"

# includeFunc "readFvIOprismZoneFieldList.H"

# includeFunc "readFvIOpyramidZoneFieldList.H"
