FoamFile
{
    format      ascii;
    class       volScalarField;
    location    "0";
    object      k;
}

dimensions      [0 2 -2 0 0 0 0];

internalField   uniform 1;

boundaryField
{
    inlet
    {
        type            turbulentIntensityKineticEnergyInlet;
        intensity       0.05;
        value           uniform 1;
    }

    outlet
    {
        type            inletOutlet;
        inletValue      uniform 1;
        value           uniform 1;
    }

    defaultFaces
    {
        type            empty;
    }
}