FoamFile
{
    format      ascii;
    class       volScalarField;
    location    "0";
    object      T;
}

dimensions      [0 0 0 1 0 0 0];

internalField   uniform 1000;

boundaryField
{
    inlet
    {
        type            fixedValue;
        value           uniform 1000;
    }

    outlet
    {
        type            inletOutlet;
        inletValue      uniform 1000;
        value           uniform 1000;
    }

    defaultFaces
    {
        type            empty;
    }
}