FoamFile
{
    version     2.0;
    format      ascii;
    class       dictionary;
    object      momentumTransport;
}
// * * * * * * * * * * * * * * * * * * * * * * * * * * * * * * * * * * * * * //

libs
(
    "libmomentumTransportModels.so"
);

// Generalized Newtonian model parameters
nuInf           10;
m               0.4;
n               3;

// ************************************************************************* //