FoamFile
{
    format      ascii;
    class       dictionary;
    object      blockMeshDict;
}


convertToMeters 1;

vertices
(
    (0  -0.2 -0.2)
    (0   0.2 -0.2)
    (0   0.2  0.2)
    (0  -0.2  0.2)

    (0.8 -0.2 -0.2)
    (0.8  0.2 -0.2)
    (0.8  0.2  0.2)
    (0.8 -0.2  0.2)
);

blocks
(
    hex (0 1 2 3 4 5 6 7) (20 8 8) simpleGrading (1 1 1)
);

boundary
(
    inlet
    {
        type patch;
        faces
        (
            (0 3 2 1)
        );
    }

    outlet
    {
        type patch;
        faces
        (
            (4 5 6 7)
        );
    }

    walls
    {
        type wall;
        faces
        (
            (0 4 7 3)
            (2 6 5 1)
        );
    }

    cylinder
    {
        type wall;
        faces ();
    }
);