/*--------------------------------*- C++ -*----------------------------------*\
  =========                 |
  \\      /  F ield         | OpenFOAM: The Open Source CFD Toolbox
   \\    /   O peration     | Website:  https://openfoam.org
    \\  /    A nd           | Version:  10
     \\/     M anipulation  |
\*---------------------------------------------------------------------------*/
FoamFile
{
    format      ascii;
    class       polyBoundaryMesh;
    location    "constant/polyMesh";
    object      boundary;
}
// * * * * * * * * * * * * * * * * * * * * * * * * * * * * * * * * * * * * * //

7
(
    inlet
    {
        type            patch;
        nFaces          10;
        startFace       750;
    }
    outlet
    {
        type            patch;
        nFaces          10;
        startFace       760;
    }
    top
    {
        type            patch;
        nFaces          40;
        startFace       770;
    }
    bottom
    {
        type            patch;
        nFaces          40;
        startFace       810;
    }
    front
    {
        type            empty;
        inGroups        List<word> 1(empty);
        nFaces          0;
        startFace       850;
    }
    back
    {
        type            empty;
        inGroups        List<word> 1(empty);
        nFaces          0;
        startFace       850;
    }
    defaultFaces
    {
        type            empty;
        inGroups        List<word> 1(empty);
        nFaces          800;
        startFace       850;
    }
)

// ************************************************************************* //
