FoamFile
{
    version     2.0;
    format      ascii;
    class       dictionary;
    object      blockMeshDict;
}
// * * * * * * * * * * * * * * * * * * * * * * * * * * * * * * * * * * * * * //

scale   1;

vertices
(
    // Block 0 - upstream region
    (0    0    0)
    (1    0    0)
    (1    1    0)
    (0    1    0)
    (0    0    0.1)
    (1    0    0.1)
    (1    1    0.1)
    (0    1    0.1)
);

blocks
(
    hex (0 1 2 3 4 5 6 7) (20 20 1) simpleGrading (1 1 1)
);

edges
(
);

boundary
(
    inlet
    {
        type patch;
        faces
        (
            (0 4 7 3)
        );
    }
    outlet
    {
        type patch;
        faces
        (
            (1 2 6 5)
        );
    }
    bottom
    {
        type symmetryPlane;
        faces
        (
            (0 1 5 4)
        );
    }
    top
    {
        type symmetryPlane;
        faces
        (
            (3 7 6 2)
        );
    }
    obstacle
    {
        type wall;
        faces
        (
        );
    }
);

mergePatchPairs
(
);

// ************************************************************************* //