FoamFile
{
    format      ascii;
    class       volScalarField;
    location    "0";
    object      N2;
}


dimensions      [0 0 0 0 0 0 0];

internalField   uniform 1;

boundaryField
{
    fuel
    {
        type            fixedValue;
        value           uniform 0;
    }
    air
    {
        type            fixedValue;
        value           uniform 1;
    }
    frontAndBack
    {
        type            zeroGradient;
    }
}