FoamFile
{
    version     2.0;
    format      ascii;
    class       dictionary;
    object      physicalProperties;
}
// * * * * * * * * * * * * * * * * * * * * * * * * * * * * * * * * * * * * * //

// Normalized thermodynamic properties
molWeight   11640.3;
Cp          2.5;
Pr          1.0;
mu          0;
R           0.7143;
gamma       1.4;

// ************************************************************************* //