FoamFile
{
    format      ascii;
    class       volScalarField;
    location    "0";
    object      nut;
}


dimensions      [0 2 -1 0 0 0 0];

internalField   uniform 0;

boundaryField
{
    frontAndBack
    {
        type            nutkWallFunction;
        value           uniform 0;
    }

    inlet
    {
        type            calculated;
        value           uniform 0;
    }

    outlet
    {
        type            calculated;
        value           uniform 0;
    }

    walls
    {
        type            nutkWallFunction;
        value           uniform 0;
    }
}