FoamFile
{
    format      ascii;
    class       volScalarField;
    object      p;
}


dimensions      [1 -1 -2 0 0 0 0];

internalField   uniform 101325;

boundaryField
{
    frontAndBack
    {
        type            calculated;
        value           uniform 0;
    }

    inlet
    {
        type            calculated;
        value           uniform 0;
    }

    outlet
    {
        type            calculated;
        value           uniform 0;
    }

    walls
    {
        type            calculated;
        value           uniform 0;
    }
}