FoamFile
{
    format      ascii;
    class       volScalarField;
    object      T;
}


dimensions      [0 0 0 1 0 0 0];

internalField   uniform 300;

boundaryField
{
    frontAndBack
    {
        type            fixedValue;
        value           uniform 305;
    }

    inlet
    {
        type            fixedValue;
        value           uniform 305;
    }

    outlet
    {
        type            zeroGradient;
    }

    walls
    {
        type            zeroGradient;
    }
}