FoamFile
{
    version     2.0;
    format      ascii;
    class       dictionary;
    object      momentumTransport;
}

// * * * * * * * * * * * * * * * * * * * * * * * * * * * * * * * * * * * * * //

mu              0;
Pr              1;
