FoamFile
    {
        version     2.0;
        format      ascii;
        class       dictionary;
        object      transportProperties;
    }

    // * * * * * * * * * * * * * * * * * * * * * * * * * * * * * * * * * * * * * //

    mu              0;
    Pr              1;
}