FoamFile
{
    version     2.0;
    format      ascii;
    class       volScalarField;
    object      nut;
}

// * * * * * * * * * * * * * * * * * * * * * * * * * * * * * * * * * * * * * //

dimensions      [0 0 0 0 0 0 0];

internalField   uniform 0;

boundaryField
{
    frontAndBack
    {
        type            calculated;
        value           uniform 0;
    }

    walls
    {
        type            calculated;
        value           uniform 0;
    }

    obstacle
    {
        type            calculated;
        value           uniform 0;
    }
}