FoamFile
{
    version     2.0;
    format      ascii;
    class       volScalarField;
    object      alpha1;
}

// * * * * * * * * * * * * * * * * * * * * * * * * * * * * * * * * * * * * * //

dimensions      [0 0 0 0 0 0 0];

internalField   uniform 0;

boundaryField
{
    frontAndBack
    {
        type            zeroGradient;
    }

    walls
    {
        type            zeroGradient;
    }

    obstacle
    {
        type            zeroGradient;
    }
}

// * * * * * * * * * * * * * * * * * * * * * * * * * * * * * * * * * * * * * //