FoamFile
{
    format      ascii;
    class       volScalarField;
    object      p;
}

dimensions      [1 -1 -2 0 0 0 0];

internalField   uniform 110000;

boundaryField
{
    inlet
    {
        type            fixedValue;
        value           uniform 110000;
    }
    outlet
    {
        type            inletOutlet;
        inletValue      uniform 110000;
        value           uniform 110000;
    }
    defaultFaces
    {
        type            empty;
    }
}