FoamFile
{
    format      ascii;
    class       volScalarField;
    object      ReThetat;
}

dimensions      [0 0 0 0 0 0 0];

internalField   uniform 1;

boundaryField
{
    defaultFaces
    {
        type            empty;
    }
}