FoamFile
{
    format      ascii;
    class       volScalarField;
    location    "0";
    object      T;
}

dimensions      [0 0 0 1 0 0 0];

internalField   uniform 1500;

boundaryField
{
    inlet
    {
        type            fixedValue;
        value           uniform 1500;
    }
    outlet
    {
        type            inletOutlet;
        inletValue      uniform 1500;
        value           uniform 1500;
    }
    defaultFaces
    {
        type            empty;
    }
}