FoamFile
{
    format      ascii;
    class       volScalarField;
    location    "0";
    object      N2;
}


dimensions      [0 0 0 0 0 0 0];

internalField   uniform 0;

boundaryField
{
    fuel
    {
        type            fixedValue;
        value           uniform 0.233;
    }
    air
    {
        type            fixedValue;
        value           uniform 0.77;
    }
    frontAndBack
    {
        type            empty;
    }
}