/*--------------------------------*- C++ -*----------------------------------*\
  =========                 |
  \\      /  F ield         | OpenFOAM: The Open Source CFD Toolbox
   \\    /   O peration     | Website:  https://openfoam.org
    \\  /    A nd           | Version:  10
     \\/     M anipulation  |
\*---------------------------------------------------------------------------*/
FoamFile
{
    format      ascii;
    class       polyBoundaryMesh;
    location    "constant/polyMesh";
    object      boundary;
}
// * * * * * * * * * * * * * * * * * * * * * * * * * * * * * * * * * * * * * //

6
(
    inlet
    {
        type            patch;
        nFaces          100;
        startFace       81490;
    }
    outlet
    {
        type            patch;
        nFaces          100;
        startFace       81590;
    }
    top
    {
        type            patch;
        nFaces          410;
        startFace       81690;
    }
    bottom
    {
        type            patch;
        nFaces          410;
        startFace       82100;
    }
    front
    {
        type            empty;
        inGroups        List<word> 1(empty);
        nFaces          41000;
        startFace       82510;
    }
    back
    {
        type            empty;
        inGroups        List<word> 1(empty);
        nFaces          41000;
        startFace       123510;
    }
)

// ************************************************************************* //
