FoamFile
{
    version     2.0;
    format      ascii;
    class       dictionary;
    object      blockMeshDict;
}

convertToMeters 1;

vertices
(
    (0       0       0)
    (0.02    0       0)
    (0.02    0.02    0)
    (0       0.02    0)
    (0       0       0.001)
    (0.02    0       0.001)
    (0.02    0.02    0.001)
    (0       0.02    0.001)
);

blocks
(
    hex (0 1 2 3 4 5 6 7) (40 40 1) simpleGrading (1 1 1)
);

edges
(
);

boundary
(
    fuelInlet
    {
        type patch;
        faces
        (
            (0 4 5 1)
        );
    }
    airInlet
    {
        type patch;
        faces
        (
            (3 2 6 7)
        );
    }
    leftWall
    {
        type symmetryPlane;
        faces
        (
            (0 3 7 4)
        );
    }
    rightWall
    {
        type symmetryPlane;
        faces
        (
            (1 5 6 2)
        );
    }
    front
    {
        type empty;
        faces
        (
            (0 1 2 3)
        );
    }
    back
    {
        type empty;
        faces
        (
            (4 5 6 7)
        );
    }
);

mergePatchPairs
(
);