FoamFile
{
    version     2.0;
    format      ascii;
    class       dictionary;
    object      physicalProperties;
}
// * * * * * * * * * * * * * * * * * * * * * * * * * * * * * * * * * * * * * //

thermoType      pureMixture<const<perfectGas<specie>>,sensibleInternalEnergy>;

nu              nu [ 0 2 -1 0 0 0 0 ] 1.5e-05;

rho             rho [ 1 -3 0 0 0 0 0 ] 1.225;

Cp              Cp [ 0 2 -2 -1 0 0 0 ] 1005;

mu              mu [ 1 -1 -1 0 0 0 0 ] 1.8e-05;

k               k [ 1 1 -3 -1 0 0 0 ] 0.024;

Pr              Pr [ 0 0 0 0 0 0 0 ] 0.7;

beta            beta [ 0 -1 0 0 0 0 0 ] 3.43e-03;

dT              dT [ 0 0 0 1 0 0 0 ] 5;

// ************************************************************************* //