FoamFile
{
    version     2.0;
    format      ascii;
    class       dictionary;
    object      combustionProperties;
}
// * * * * * * * * * * * * * * * * * * * * * * * * * * * * * * * * * * * * * //

combustionModel    flamelet;

flamelet
{
    type             flamelet;
    nFlamelets       1;
    nMixingLayers    1;
    nSpecies         3;
    nElements        3;
    species
    (
        CH4
        O2
        N2
    );
    elements
    (
        C
        O
        N
    );
    thermoType
    {
        mixtureType    pureMixture;
        transport      const;
        thermo         hConst;
        equationOfState    perfectGas;
        specie        specie;
        energy         sensibleEnthalpy;
    };
    reactionMechanism
    {
        type         singleStep;
        mechanismFile "CH4_O2_N2_singleStep.dat";
        stoichiometry "CH4 + 2(O2 + 3.76 N2) -> CO2 + 2 H2O + 7.52 N2";
        reactionRate
        {
            type         Arrhenius;
            A            1.3e14;
            n            -0.3;
            Ea           2.2e8;
        };
        reactionPath
        {
            type         none;
        };
        preExponentialFactor
        {
            type         none;
        };
        activationEnergy
        {
            type         none;
        };
    };
    flameletTable
    {
        type         flameletTable;
        fileName     "flameletTable.dat";
        nZeta        100;
        nChi       100;
        nSpecies     3;
        nElements    3;
        nFlamelets   1;
        nMixingLayers 1;
        mixtureFile  "mixture.dat";
        thermoFile   "thermo.dat";
        transportFile "transport.dat";
        reactionFile "reaction.dat";
        flameletFile "flamelet.dat";
        tableFile    "flameletTable.dat";
        interpolationScheme linear;
        nZetaMin     0.0;
        nZetaMax     1.0;
        nChiMin      0.0;
        nChiMax      100.0;
        nSpeciesMin  0.0;
        nSpeciesMax  1.0;
        nElementsMin 0.0;
        nElementsMax 1.0;
        nFlameletsMin 0.0;
        nFlameletsMax 1.0;
        nMixingLayersMin 0.0;
        nMixingLayersMax 1.0;
    };
    flameletProperties
    {
        type         flameletProperties;
        nFlamelets   1;
        nMixingLayers 1;
        nSpecies     3;
        nElements    3;
        nZeta        100;
        nChi       100;
        nZetaMin     0.0;
        nZetaMax     1.0;
        nChiMin      0.0;
        nChiMax      100.0;
        nSpeciesMin  0.0;
        nSpeciesMax  1.0;
        nElementsMin 0.0;
        nElementsMax 1.0;
        nFlameletsMin 0.0;
        nFlameletsMax 1.0;
        nMixingLayersMin 0.0;
        nMixingLayersMax 1.0;
        mixtureFile  "mixture.dat";
        thermoFile   "thermo.dat";
        transportFile "transport.dat";
        reactionFile "reaction.dat";
        flameletFile "flamelet.dat";
        tableFile    "flameletTable.dat";
        interpolationScheme linear;
    };
    flameletTableProperties
    {
        type         flameletTableProperties;
        nZeta        100;
        nChi       100;
        nSpecies     3;
        nElements    3;
        nFlamelets   1;
        nMixingLayers 1;
        mixtureFile  "mixture.dat";
        thermoFile   "thermo.dat";
        transportFile "transport.dat";
        reactionFile "reaction.dat";
        flameletFile "flamelet.dat";
        tableFile    "flameletTable.dat";
        interpolationScheme linear;
        nZetaMin     0.0;
        nZetaMax     1.0;
        nChiMin      0.0;
        nChiMax      100.0;
        nSpeciesMin  0.0;
        nSpeciesMax  1.0;
        nElementsMin 0.0;
        nElementsMax 1.0;
        nFlameletsMin 0.0;
        nFlameletsMax 1.0;
        nMixingLayersMin 0.0;
        nMixingLayersMax 1.0;
    };
    flameletProperties
    {
        type         flameletProperties;
        nFlamelets   1;
        nMixingLayers 1;
        nSpecies     3;
        nElements    3;
        nZeta        100;
        nChi       100;
        nZetaMin     0.0;
        nZetaMax     1.0;
        nChiMin      0.0;
        nChiMax      100.0;
        nSpeciesMin  0.0;
        nSpeciesMax  1.0;
        nElementsMin 0.0;
        nElementsMax 1.0;
        nFlameletsMin 0.0;
        nFlameletsMax 1.0;
        nMixingLayersMin 0.0;
        nMixingLayersMax 1.0;
        mixtureFile  "mixture.dat";
        thermoFile   "thermo.dat";
        transportFile "transport.dat";
        reactionFile "reaction.dat";
        flameletFile "flamelet.dat";
        tableFile    "flameletTable.dat";
        interpolationScheme linear;
    };
    flameletTableProperties
    {
        type         flameletTableProperties;
        nZeta        100;
        nChi       100;
        nSpecies     3;
        nElements    3;
        nFlamelets   1;
        nMixingLayers 1;
        mixtureFile  "mixture.dat";
        thermoFile   "thermo.dat";
        transportFile "transport.dat";
        reactionFile "reaction.dat";
        flameletFile "flamelet.dat";
        tableFile    "flameletTable.dat";
        interpolationScheme linear;
        nZetaMin     0.0;
        nZetaMax     1.0;
        nChiMin      0.0;
        nChiMax      100.0;
        nSpeciesMin  0.0;
        nSpeciesMax  1.0;
        nElementsMin 0.0;
        nElementsMax 1.0;
        nFlameletsMin 0.0;
        nFlameletsMax 1.0;
        nMixingLayersMin 0.0;
        nMixingLayersMax 1.0;
    };
    flameletProperties
    {
        type         flameletProperties;
        nFlamelets   1;
        nMixingLayers 1;
        nSpecies     3;
        nElements    3;
        nZeta        100;
        nChi       100;
        nZetaMin     0.0;
        nZetaMax     1.0;
        nChiMin      0.0;
        nChiMax      100.0;
        nSpeciesMin  0.0;
        nSpeciesMax  1.0;
        nElementsMin 0.0;
        nElementsMax 1.0;
        nFlameletsMin 0.0;
        nFlameletsMax 1.0;
        nMixingLayersMin 0.0;
        nMixingLayersMax 1.0;
        mixtureFile  "mixture.dat";
        thermoFile   "thermo.dat";
        transportFile "transport.dat";
        reactionFile "reaction.dat";
        flameletFile "flamelet.dat";
        tableFile    "flameletTable.dat";
        interpolationScheme linear;
    };
    flameletTableProperties
    {
        type         flameletTableProperties;
        nZeta        100;
        nChi       100;
        nSpecies     3;
        nElements    3;
        nFlamelets   1;
        nMixingLayers 1;
        mixtureFile  "mixture.dat";
        thermoFile   "thermo.dat";
        transportFile "transport.dat";
        reactionFile "reaction.dat";
        flameletFile "flamelet.dat";
        tableFile    "flameletTable.dat";
        interpolationScheme linear;
        nZetaMin     0.0;
        nZetaMax     1.0;
        nChiMin      0.0;
        nChiMax      100.0;
        nSpeciesMin  0.0;
        nSpeciesMax  1.0;
        nElementsMin 0.0;
        nElementsMax 1.0;
        nFlameletsMin 0.0;
        nFlameletsMax 1.0;
        nMixingLayersMin 0.0;
        nMixingLayersMax 1.0;
    };
    flameletProperties
    {
        type         flameletProperties;
        nFlamelets   1;
        nMixingLayers 1;
        nSpecies     3;
        nElements    3;
        nZeta        100;
        nChi       100;
        nZetaMin     0.0;
        nZetaMax     1.0;
        nChiMin      0.0;
        nChiMax      100.0;
        nSpeciesMin  0.0;
        nSpeciesMax  1.0;
        nElementsMin 0.0;
        nElementsMax 1.0;
        nFlameletsMin 0.0;
        nFlameletsMax 1.0;
        nMixingLayersMin 0.0;
        nMixingLayersMax 1.0;
        mixtureFile  "mixture.dat";
        thermoFile   "thermo.dat";
        transportFile "transport.dat";
        reactionFile "reaction.dat";
        flameletFile "flamelet.dat";
        tableFile    "flameletTable.dat";
        interpolationScheme linear;
    };
    flameletTableProperties
    {
        type         flameletTableProperties;
        nZeta        100;
        nChi       100;
        nSpecies     3;
        nElements    3;
        nFlamelets   1;
        nMixingLayers 1;
        mixtureFile  "mixture.dat";
        thermoFile   "thermo.dat";
        transportFile "transport.dat";
        reactionFile "reaction.dat";
        flameletFile "flamelet.dat";
        tableFile    "flameletTable.dat";
        interpolationScheme linear;
        nZetaMin     0.0;
        nZetaMax     1.0;
        nChiMin      0.0;
        nChiMax      100.0;
        nSpeciesMin  0.0;
        nSpeciesMax  1.0;
        nElementsMin 0.0;
        nElementsMax 1.0;
        nFlameletsMin 0.0;
        nFlameletsMax 1.0;
        nMixingLayersMin 0.0;
        nMixingLayersMax 1.0;
    };
    flameletProperties
    {
        type         flameletProperties;
        nFlamelets   1;
        nMixingLayers 1;
        nSpecies     3;
        nElements    3;
        nZeta        100;
        nChi       100;
        nZetaMin     0.0;
        nZetaMax     1.0;
        nChiMin      0.0;
        nChiMax      100.0;
        nSpeciesMin  0.0;
        nSpeciesMax  1.0;
        nElementsMin 0.0;
        nElementsMax 1.0;
        nFlameletsMin 0.0;
        nFlameletsMax 1.0;
        nMixingLayersMin 0.0;
        nMixingLayersMax 1.0;
        mixtureFile  "mixture.dat";
        thermoFile   "thermo.dat";
        transportFile "transport.dat";
        reactionFile "reaction.dat";
        flameletFile "flamelet.dat";
        tableFile    "flameletTable.dat";
        interpolationScheme linear;
    };
    flameletTableProperties
    {
        type         flameletTableProperties;
        nZeta        100;
        nChi       100;
        nSpecies     3;
        nElements    3;
        nFlamelets   1;
        nMixingLayers 1;
        mixtureFile  "mixture.dat";
        thermoFile   "thermo.dat";
        transportFile "transport.dat";
        reactionFile "reaction.dat";
        flameletFile "flamelet.dat";
        tableFile    "flameletTable.dat";
        interpolationScheme linear;
        nZetaMin     0.0;
        nZetaMax     1.0;
        nChiMin      0.0;
        nChiMax      100.0;
        nSpeciesMin  0.0;
        nSpeciesMax  1.0;
        nElementsMin 0.0;
        nElementsMax 1.0;
        nFlameletsMin 0.0;
        nFlameletsMax 1.0;
        nMixingLayersMin 0.0;
        nMixingLayersMax 1.0;
    };
    flameletProperties
    {
        type         flameletProperties;
        nFlamelets   1;
        nMixingLayers 1;
        nSpecies     3;
        nElements    3;
        nZeta        100;
        nChi       100;
        nZetaMin     0.0;
        nZetaMax     1.0;
        nChiMin      0.0;
        nChiMax      100.0;
        nSpeciesMin  0.0;
        nSpeciesMax  1.0;
        nElementsMin 0.0;
        nElementsMax 1.0;
        nFlameletsMin 0.0;
        nFlameletsMax 1.0;
        nMixingLayersMin 0.0;
        nMixingLayersMax 1.0;
        mixtureFile  "mixture.dat";
        thermoFile   "thermo.dat";
        transportFile "transport.dat";
        reactionFile "reaction.dat";
        flameletFile "flamelet.dat";
        tableFile    "flameletTable.dat";
        interpolationScheme linear;
    };
    flameletTableProperties
    {
        type         flameletTableProperties;
        nZeta        100;
        nChi       100;
        nSpecies     3;
        nElements    3;
        nFlamelets   1;
        nMixingLayers 1;
        mixtureFile  "mixture.dat";
        thermoFile   "thermo.dat";
        transportFile "transport.dat";
        reactionFile "reaction.dat";
        flameletFile "flamelet.dat";
        tableFile    "flameletTable.dat";
        interpolationScheme linear;
        nZetaMin     0.0;
        nZetaMax     1.0;
        nChiMin      0.0;
        nChiMax      100.0;
        nSpeciesMin  0.0;
        nSpeciesMax  1.0;
        nElementsMin 0.0;
        nElementsMax 1.0;
        nFlameletsMin 0.0;
        nFlameletsMax 1.0;
        nMixingLayersMin 0.0;
        nMixingLayersMax 1.0;
    };
    flameletProperties
    {
        type         flameletProperties;
        nFlamelets   1;
        nMixingLayers 1;
        nSpecies     3;
        nElements    3;
        nZeta        100;
        nChi       100;
        nZetaMin     0.0;
        nZetaMax     1.0;
        nChiMin      0.0;
        nChiMax      100.0;
        nSpeciesMin  0.0;
        nSpeciesMax  1.0;
        nElementsMin 0.0;
        nElementsMax 1.0;
        nFlameletsMin 0.0;
        nFlameletsMax 1.0;
        nMixingLayersMin 0.0;
        nMixingLayersMax 1.0;
        mixtureFile  "mixture.dat";
        thermoFile   "thermo.dat";
        transportFile "transport.dat";
        reactionFile "reaction.dat";
        flameletFile "flamelet.dat";
        tableFile    "flameletTable.dat";
        interpolationScheme linear;
    };
    flameletTableProperties
    {
        type         flameletTableProperties;
        nZeta        100;
        nChi       100;
        nSpecies     3;
        nElements    3;
        nFlamelets   1;
        nMixingLayers 1;
        mixtureFile  "mixture.dat";
        thermoFile   "thermo.dat";
        transportFile "transport.dat";
        reactionFile "reaction.dat";
        flameletFile "flamelet.dat";
        tableFile    "flameletTable.dat";
        interpolationScheme linear;
        nZetaMin     0.0;
        nZetaMax     1.0;
        nChiMin      0.0;
        nChiMax      100.0;
        nSpeciesMin  0.0;
        nSpeciesMax  1.0;
        nElementsMin 0.0;
        nElementsMax 1.0;
        nFlameletsMin 0.0;
        nFlameletsMax 1.0;
        nMixingLayersMin 0.0;
        nMixingLayersMax 1.0;
    };
    flameletProperties
    {
        type         flameletProperties;
        nFlamelets   1;
        nMixingLayers 1;
        nSpecies     3;
        nElements    3;
        nZeta        100;
        nChi       100;
        nZetaMin     0.0;
        nZetaMax     1.0;
        nChiMin      0.0;
        nChiMax      100.0;
        nSpeciesMin  0.0;
        nSpeciesMax  1.0;
        nElementsMin 0.0;
        nElementsMax 1.0;
        nFlameletsMin 0.0;
        nFlameletsMax 1.0;
        nMixingLayersMin 0.0;
        nMixingLayersMax 1.0;
        mixtureFile  "mixture.dat";
        thermoFile   "thermo.dat";
        transportFile "transport.dat";
        reactionFile "reaction.dat";
        flameletFile "flamelet.dat";
        tableFile    "flameletTable.dat";
        interpolationScheme linear;
    };
    flameletTableProperties
    {
        type         flameletTableProperties;
        nZeta        100;
        nChi       100;
        nSpecies     3;
        nElements    3;
        nFlamelets   1;
        nMixingLayers 1;
        mixtureFile  "mixture.dat";
        thermoFile   "thermo.dat";
        transportFile "transport.dat";
        reactionFile "reaction.dat";
        flameletFile "flamelet.dat";
        tableFile    "flameletTable.dat";
        interpolationScheme linear;
        nZetaMin     0.0;
        nZetaMax     1.0;
        nChiMin      0.0;
        nChiMax      100.0;
        nSpeciesMin  0.0;
        nSpeciesMax  1.0;
        nElementsMin 0.0;
        nElementsMax 1.0;
        nFlameletsMin 0.0;
        nFlameletsMax 1.0;
        nMixingLayersMin 0.0;
        nMixingLayersMax 1.0;
    };
    flameletProperties
    {
        type         flameletProperties;
        nFlamelets   1;
        nMixingLayers 1;
        nSpecies     3;
        nElements    3;
        nZeta        100;
        nChi       100;
        nZetaMin     0.0;
        nZetaMax     1.0;
        nChiMin      0.0;
        nChiMax      100.0;
        nSpeciesMin  0.0;
        nSpeciesMax  1.0;
        nElementsMin 0.0;
        nElementsMax 1.0;
        nFlameletsMin 0.0;
        nFlameletsMax 1.0;
        nMixingLayersMin 0.0;
        nMixingLayersMax 1.0;
        mixtureFile  "mixture.dat";
        thermoFile   "thermo.dat";
        transportFile "transport.dat";
        reactionFile "reaction.dat";
        flameletFile "flamelet.dat";
        tableFile    "flameletTable.dat";
        interpolationScheme linear;
    };
    flameletTableProperties
    {
        type         flameletTableProperties;
        nZeta        100;
        nChi       100;
        nSpecies     3;
        nElements    3;
        nFlamelets   1;
        nMixingLayers 1;
        mixtureFile  "mixture.dat";
        thermoFile   "thermo.dat";
        transportFile "transport.dat";
        reactionFile "reaction.dat";
        flameletFile "flamelet.dat";
        tableFile    "flameletTable.dat";
        interpolationScheme linear;
        nZetaMin     0.0;
        nZetaMax     1.0;
        nChiMin      0.0;
        nChiMax      100.0;
        nSpeciesMin  0.0;
        nSpeciesMax  1.0;
        nElementsMin 0.0;
        nElementsMax 1.0;
        nFlameletsMin 0.0;
        nFlameletsMax 1.0;
        nMixingLayersMin 0.0;
        nMixingLayersMax 1.0;
    };
    flameletProperties
    {
        type         flameletProperties;
        nFlamelets   1;
        nMixingLayers 1;
        nSpecies     3;
        nElements    3;
        nZeta        100;
        nChi       100;
        nZetaMin     0.0;
        nZetaMax     1.0;
        nChiMin      0.0;
        nChiMax      100.0;
        nSpeciesMin  0.0;
        nSpeciesMax  1.0;
        nElementsMin 0.0;
        nElementsMax 1.0;
        nFlameletsMin 0.0;
        nFlameletsMax 1.0;
        nMixingLayersMin 0.0;
        nMixingLayersMax 1.0;
        mixtureFile  "mixture.dat";
        thermoFile   "thermo.dat";
        transportFile "transport.dat";
        reactionFile "reaction.dat";
        flameletFile "flamelet.dat";
        tableFile    "flameletTable.dat";
        interpolationScheme linear;
    };
    flameletTableProperties
    {
        type         flameletTableProperties;
        nZeta        100;
        nChi       100;
        nSpecies     3;
        nElements    3;
        nFlamelets   1;
        nMixingLayers 1;
        mixtureFile  "mixture.dat";
        thermoFile   "thermo.dat";
        transportFile "transport.dat";
        reactionFile "reaction.dat";
        flameletFile "flamelet.dat";
        tableFile    "flameletTable.dat";
        interpolationScheme linear;
        nZetaMin     0.0;
        nZetaMax     1.0;
        nChiMin      0.0;
        nChiMax      100.0;
        nSpeciesMin  0.0;
        nSpeciesMax  1.0;
        nElementsMin 0.0;
        nElementsMax 1.0;
        nFlameletsMin 0.0;
        nFlameletsMax 1.0;
        nMixingLayersMin 0.0;
        nMixingLayersMax 1.0;
    };
    flameletProperties
    {
        type         flameletProperties;
        nFlamelets   1;
        nMixingLayers 1;
        nSpecies     3;
        nElements    3;
        nZeta        100;
        nChi       100;
        nZetaMin     0.0;
        nZetaMax     1.0;
        nChiMin      0.0;
        nChiMax      100.0;
        nSpeciesMin  0.0;
        nSpeciesMax  1.0;
        nElementsMin 0.0;
        nElementsMax 1.0;
        nFlameletsMin 0.0;
        nFlameletsMax 1.0;
        nMixingLayersMin 0.0;
        nMixingLayersMax 1.0;
        mixtureFile  "mixture.dat";
        thermoFile   "thermo.dat";
        transportFile "transport.dat";
        reactionFile "reaction.dat";
        flameletFile "flamelet.dat";
        tableFile    "flameletTable.dat";
        interpolationScheme linear;
    };
    flameletTableProperties
    {
        type         flameletTableProperties;
        nZeta        100;
        nChi       100;
        nSpecies     3;
        nElements    3;
        nFlamelets   1;
        nMixingLayers 1;
        mixtureFile  "mixture.dat";
        thermoFile   "thermo.dat";
        transportFile "transport.dat";
        reactionFile "reaction.dat";
        flameletFile "flamelet.dat";
        tableFile    "flameletTable.dat";
        interpolationScheme linear;
        nZetaMin     0.0;
        nZetaMax     1.0;
        nChiMin      0.0;
        nChiMax      100.0;
        nSpeciesMin  0.0;
        nSpeciesMax  1.0;
        nElementsMin 0.0;
        nElementsMax 1.0;
        nFlameletsMin 0.0;
        nFlameletsMax 1.0;
        nMixingLayersMin 0.0;
        nMixingLayersMax 1.0;
    };
    flameletProperties
    {
        type         flameletProperties;
        nFlamelets   1;
        nMixingLayers 1;
        nSpecies     3;
        nElements    3;
        nZeta        100;
        nChi       100;
        nZetaMin     0.0;
        nZetaMax     1.0;
        nChiMin      0.0;
        nChiMax      100.0;
        nSpeciesMin  0.0;
        nSpeciesMax  1.0;
        nElementsMin 0.0;
        nElementsMax 1.0;
        nFlameletsMin 0.0;
        nFlameletsMax 1.0;
        nMixingLayersMin 0.0;
        nMixingLayersMax 1.0;
        mixtureFile  "mixture.dat";
        thermoFile   "thermo.dat";
        transportFile "transport.dat";
        reactionFile "reaction.dat";
        flameletFile "flamelet.dat";
        tableFile    "flameletTable.dat";
        interpolationScheme linear;
    };
    flameletTableProperties
    {
        type         flameletTableProperties;
        nZeta        100;
        nChi       100;
        nSpecies     3;
        nElements    3;
        nFlamelets   1;
        nMixingLayers 1;
        mixtureFile  "mixture.dat";
        thermoFile   "thermo.dat";
        transportFile "transport.dat";
        reactionFile "reaction.dat";
        flameletFile "flamelet.dat";
        tableFile    "flameletTable.dat";
        interpolationScheme linear;
        nZetaMin     0.0;
        nZetaMax     1.0;
        nChiMin      0.0;
        nChiMax      100.0;
        nSpeciesMin  0.0;
        nSpeciesMax  1.0;
        nElementsMin 0.0;
        nElementsMax 1.0;
        nFlameletsMin 0.0;
        nFlameletsMax 1.0;
        nMixingLayersMin 0.0;
        nMixingLayersMax 1.0;
    };
    flameletProperties
    {
        type         flameletProperties;
        nFlamelets   1;
        nMixingLayers 1;
        nSpecies     3;
        nElements    3;
        nZeta        100;
        nChi       100;
        nZetaMin     0.0;
        nZetaMax     1.0;
        nChiMin      0.0;
        nChiMax      100.0;
        nSpeciesMin  0.0;
        nSpeciesMax  1.0;
        nElementsMin 0.0;
        nElementsMax 1.0;
        nFlameletsMin 0.0;
        nFlameletsMax 1.0;
        nMixingLayersMin 0.0;
        nMixingLayersMax 1.0;
        mixtureFile  "mixture.dat";
        thermoFile   "thermo.dat";
        transportFile "transport.dat";
        reactionFile "reaction.dat";
        flameletFile "flamelet.dat";
        tableFile    "flameletTable.dat";
        interpolationScheme linear;
    };
    flameletTableProperties
    {
        type         flameletTableProperties;
        nZeta        100;
        nChi       100;
        nSpecies     3;
        nElements    3;
        nFlamelets   1;
        nMixingLayers 1;
        mixtureFile  "mixture.dat";
        thermoFile   "thermo.dat";
        transportFile "transport.dat";
        reactionFile "reaction.dat";
        flameletFile "flamelet.dat";
        tableFile    "flameletTable.dat";
        interpolationScheme linear;
        nZetaMin     0.0;
        nZetaMax     1.0;
        nChiMin      0.0;
        nChiMax      100.0;
        nSpeciesMin  0.0;
        nSpeciesMax  1.0;
        nElementsMin 0.0;
        nElementsMax 1.0;
        nFlameletsMin 0.0;
        nFlameletsMax 1.0;
        nMixingLayersMin 0.0;
        nMixingLayersMax 1.0;
    };
    flameletProperties
    {
        type         flameletProperties;
        nFlamelets   1;
        nMixingLayers 1;
        nSpecies     3;
        nElements    3;
        nZeta        100;
        nChi       100;
        nZetaMin     0.0;
        nZetaMax     1.0;
        nChiMin      0.0;
        nChiMax      100.0;
        nSpeciesMin  0.0;
        nSpeciesMax  1.0;
        nElementsMin 0.0;
        nElementsMax 1.0;
        nFlameletsMin 0.0;
        nFlameletsMax 1.0;
        nMixingLayersMin 0.0;
        nMixingLayersMax 1.0;
        mixtureFile  "mixture.dat";
        thermoFile   "thermo.dat";
        transportFile "transport.dat";
        reactionFile "reaction.dat";
        flameletFile "flamelet.dat";
        tableFile    "flameletTable.dat";
        interpolationScheme linear;
    };
    flameletTableProperties
    {
        type         flameletTableProperties;
        nZeta        100;
        nChi       100;
        nSpecies     3;
        nElements    3;
        nFlamelets   1;
        nMixingLayers 1;
        mixtureFile  "mixture.dat";
        thermoFile   "thermo.dat";
        transportFile "transport.dat";
        reactionFile "reaction.dat";
        flameletFile "flamelet.dat";
        tableFile    "flameletTable.dat";
        interpolationScheme linear;
        nZetaMin     0.0;
        nZetaMax     1.0;
        nChiMin      0.0;
        nChiMax      100.0;
        nSpeciesMin  0.0;
        nSpeciesMax  1.0;
        nElementsMin 0.0;
        nElementsMax 1.0;
        nFlameletsMin 0.0;
        nFlameletsMax 1.0;
        nMixingLayersMin 0.0;
        nMixingLayersMax 1.0;
    };
    flameletProperties
    {
        type         flameletProperties;
        nFlamelets   1;
        nMixingLayers 1;
        nSpecies     3;
        nElements    3;
        nZeta        100;
        nChi       100;
        nZetaMin     0.0;
        nZetaMax     1.0;
        nChiMin      0.0;
        nChiMax      100.0;
        nSpeciesMin  0.0;
        nSpeciesMax  1.0;
        nElementsMin 0.0;
        nElementsMax 1.0;
        nFlameletsMin 0.0;
        nFlameletsMax 1.0;
        nMixingLayersMin 0.0;
        nMixingLayersMax 1.0;
        mixtureFile  "mixture.dat";
        thermoFile   "thermo.dat";
        transportFile "transport.dat";
        reactionFile "reaction.dat";
        flameletFile "flamelet.dat";
        tableFile    "flameletTable.dat";
        interpolationScheme linear;
    };
    flameletTableProperties
    {
        type         flameletTableProperties;
        nZeta        100;
        nChi       100;
        nSpecies     3;
        nElements    3;
        nFlamelets   1;
        nMixingLayers 1;
        mixtureFile  "mixture.dat";
        thermoFile   "thermo.dat";
        transportFile "transport.dat";
        reactionFile "reaction.dat";
        flameletFile "flamelet.dat";
        tableFile    "flameletTable.dat";
        interpolationScheme linear;
        nZetaMin     0.0;
        nZetaMax     1.0;
        nChiMin      0.0;
        nChiMax      100.0;
        nSpeciesMin  0.0;
        nSpeciesMax  1.0;
        nElementsMin 0.0;
        nElementsMax 1.0;
        nFlameletsMin 0.0;
        nFlameletsMax 1.0;
        nMixingLayersMin 0.0;
        nMixingLayersMax 1.0;
    };
    flameletProperties
    {
        type         flameletProperties;
        nFlamelets   1;
        nMixingLayers 1;
        nSpecies     3;
        nElements    3;
        nZeta        100;
        nChi       100;
        nZetaMin     0.0;
        nZetaMax     1.0;
        nChiMin      0.0;
        nChiMax      100.0;
        nSpeciesMin  0.0;
        nSpeciesMax  1.0;
        nElementsMin 0.0;
        nElementsMax 1.0;
        nFlameletsMin 0.0;
        nFlameletsMax 1.0;
        nMixingLayersMin 0.0;
        nMixingLayersMax 1.0;
        mixtureFile  "mixture.dat";
        thermoFile   "thermo.dat";
        transportFile "transport.dat";
        reactionFile "reaction.dat";
        flameletFile "flamelet.dat";
        tableFile    "flameletTable.dat";
        interpolationScheme linear;
    };
    flameletTableProperties
    {
        type         flameletTableProperties;
        nZeta        100;
        nChi       100;
        nSpecies     3;
        nElements    3;
        nFlamelets   1;
        nMixingLayers 1;
        mixtureFile  "mixture.dat";
        thermoFile   "thermo.dat";
        transportFile "transport.dat";
        reactionFile "reaction.dat";
        flameletFile "flamelet.dat";
        tableFile    "flameletTable.dat";
        interpolationScheme linear;
        nZetaMin     0.0;
        nZetaMax     1.0;
        nChiMin      0.0;
        nChiMax      100.0;
        nSpeciesMin  0.0;
        nSpeciesMax  1.0;
        nElementsMin 0.0;
        nElementsMax 1.0;
        nFlameletsMin 0.0;
        nFlameletsMax 1.0;
        nMixingLayersMin 0.0;
        nMixingLayersMax 1.0;
    };
    flameletProperties
    {
        type         flameletProperties;
        nFlamelets   1;
        nMixingLayers 1;
        nSpecies     3;
        nElements    3;
        nZeta        100;
        nChi       100;
        nZetaMin     0.0;
        nZetaMax     1.0;
        nChiMin      0.0;
        nChiMax      100.0;
        nSpeciesMin  0.0;
        nSpeciesMax  1.0;
        nElementsMin 0.0;
        nElementsMax 1.0;
        nFlameletsMin 0.0;
        nFlameletsMax 1.0;
        nMixingLayersMin 0.0;
        nMixingLayersMax 1.0;
        mixtureFile  "mixture.dat";
        thermoFile   "thermo.dat";
        transportFile "transport.dat";
        reactionFile "reaction.dat";
        flameletFile "flamelet.dat";
        tableFile    "flameletTable.dat";
        interpolationScheme linear;
    };
    flameletTableProperties
    {
        type         flameletTableProperties;
        nZeta        100;
        nChi       100;
        nSpecies     3;
        nElements    3;
        nFlamelets   1;
        nMixingLayers 1;
        mixtureFile  "mixture.dat";
        thermoFile   "thermo.dat";
        transportFile "transport.dat";
        reactionFile "reaction.dat";
        flameletFile "flamelet.dat";
        tableFile    "flameletTable.dat";
        interpolationScheme linear;
        nZetaMin     0.0;
        nZetaMax     1.0;
        nChiMin      0.0;
        nChiMax      100.0;
        nSpeciesMin  0.0;
        nSpeciesMax  1.0;
        nElementsMin 0.0;
        nElementsMax 1.0;
        nFlameletsMin 0.0;
        nFlameletsMax 1.0;
        nMixingLayersMin 0.0;
        nMixingLayersMax 1.0;
    };
    flameletProperties
    {
        type         flameletProperties;
        nFlamelets   1;
        nMixingLayers 1;