FoamFile
{
    format      ascii;
    class       dictionary;
    object      blockMeshDict;
}


convertToMeters 1;

vertices
(
    (-0.1 -0.075 0)
    (0.3 -0.075 0)
    (0.3 0.075 0)
    (-0.1 0.075 0)
    (-0.1 -0.075 1)
    (0.3 -0.075 1)
    (0.3 0.075 1)
    (-0.1 0.075 1)
);

blocks
(
    hex (0 1 2 3 4 5 6 7) (40 30 1) simpleGrading (1 1 1)
);

defaultPatch
{
    type empty;
}

boundary
(
);