FoamFile
{
    version     2.0;
    format      ascii;
    class       dictionary;
    object      physicalProperties;
}

// * * * * * * * * * * * * * * * * * * * * * * * * * * * * * * * * * * * * * //

viscosityModel  constant;

nu              0.01 [ 0 2 -1 0 0 0 0 ];

// Cross-Power-Law parameters (kept for reference but not used with constant model)
// nuInf           10 [ 0 2 -1 0 0 0 0 ];
// m               0.4;
// n               3;

// * * * * * * * * * * * * * * * * * * * * * * * * * * * * * * * * * * * * * //