FoamFile
{
    version     2.0;
    format      ascii;
    class       dictionary;
    object      blockMeshDict;
}
// * * * * * * * * * * * * * * * * * * * * * * * * * * * * * * * * * * * * * //

convertToMeters 1;

vertices
(
    (0 0 0)
    (0.02 0 0)
    (0.02 0.02 0)
    (0 0.02 0)
    (0 0 0.001)
    (0.02 0 0.001)
    (0.02 0.02 0.001)
    (0 0.02 0.001)
);

blocks
(
    hex (0 1 2 3 4 5 6 7) (100 100 1) simpleGrading (1 1 1)
);

edges
(
);

boundary
(
    inletFuel
    {
        type patch;
        faces
        (
            (0 4 7 3)
        );
    }
    inletAir
    {
        type patch;
        faces
        (
            (1 5 6 2)
        );
    }
    walls
    {
        type wall;
        faces
        (
            (0 1 5 4)
            (2 3 7 6)
            (4 5 6 7)
        );
    }
    outlet
    {
        type patch;
        faces
        (
            (0 1 2 3)
        );
    }
);

mergePatchPairs
(
);

// ************************************************************************* //