FoamFile
{
    format      ascii;
    class       volScalarField;
    object      e;
}

dimensions      [0 2 -2 0 0 0 0];

internalField   uniform 1005;

boundaryField
{
    inlet
    {
        type            fixedValue;
        value           uniform 1005;
    }

    outlet
    {
        type            zeroGradient;
    }

    obstacle
    {
        type            zeroGradient;
    }

    frontAndBack
    {
        type            empty;
    }
}