FoamFile
{
    version     2.0;
    format      ascii;
    class       dictionary;
    location    "system";
    object      blockMeshDict;
}

// * * * * * * * * * * * * * * * * * * * * * * * * * * * * * * * * * * * * * //

scale   1;

vertices
(
    (0 0 0)
    (1 0 0)
    (1 1 0)
    (0 1 0)
    (0 0 0.1)
    (1 0 0.1)
    (1 1 0.1)
    (0 1 0.1)
);

blocks
(
    hex (0 1 2 3 4 5 6 7) (20 20 1) simpleGrading (1 1 1)
);

edges
(
);

boundary
(
    front
    {
        type patch;
        faces
        (
            (0 4 7 3)
            (1 5 6 2)
        );
    }
    back
    {
        type patch;
        faces
        (
            (0 1 5 4)
            (3 2 6 7)
        );
    }
    bottom
    {
        type patch;
        faces
        (
            (0 1 2 3)
        );
    }
    top
    {
        type patch;
        faces
        (
            (4 5 6 7)
        );
    }
);

mergePatchPairs
(
);