FoamFile
{
    format      ascii;
    class       dictionary;
    object      blockMeshDict;
}

convertToMeters 1;

vertices
(
    (-50 25 25)
    (-50 25 -25)
    (-50 -75 25)
    (-50 -75 -25)
    (-500 25 25)
    (-500 25 -25)
    (-500 -75 25)
    (-500 -75 -25)
    (25 0 25)
    (25 0 -25)
);

blocks
(
    hex (0 1 3 2 4 5 7 6) (20 20 1) simpleGrading (1 1 1)
);

edges
();

boundary
(
    inlet
    {
        type patch;
        faces
        (
            (0 1 5 4)
        );
    }

    outlet
    {
        type patch;
        faces
        (
            (1 5 9 8)
        );
    }

    defaultFaces
    {
        type wall;
        faces
        (
            (2 3 7 6)
            (0 2 6 4)
            (1 3 7 5)
            (4 5 9 8)
            (0 1 3 2)
            (4 6 7 5)
        );
    }
);
