FoamFile
{
    format      ascii;
    class       dictionary;
    location    "constant";
    object      chemistryProperties;
}


chemistryType
{
    solver            ode;
}

chemistry       on;

initialChemicalTimeStep 1e-7;

odeCoeffs
{
    solver          seulex;
    absTol          1e-8;
    relTol          1e-1;
}

#include "reactions"