FoamFile
{
    format      ascii;
    class       dictionary;
    location    "constant";
    object      thermodynamics;
}


thermoType
{
    type            heRhoThermo;
    mixture         multiComponentMixture;
    transport       sutherland;
    thermo          janaf;
    energy          sensibleInternalEnergy;
    equationOfState perfectGas;
    specie          specie;
}

defaultSpecie N2;

#include "speciesThermo"