FoamFile
{
    version     2.0;
    format      ascii;
    class       dictionary;
    object      momentumTransport;
}
// * * * * * * * * * * * * * * * * * * * * * * * * * * * * * * * * * * * * * //

transportModel  GeneralisedNewtonian;

GeneralisedNewtonianCoeffs
{
    nuInf           10;
    m               0.4;
    n               3;
}

// ************************************************************************* //