FoamFile
{
    version     2.0;
    format      ascii;
    class       volScalarField;
    object      H2O;
}
// * * * * * * * * * * * * * * * * * * * * * * * * * * * * * * * * * * * * * //

dimensions      [1 -3 0 0 0 0 0];

internalField   uniform 0.0;

boundaryField
{
    inletFuel
    {
        type            fixedValue;
        value           uniform 0.0;
    }

    inletAir
    {
        type            fixedValue;
        value           uniform 0.0;
    }

    outlet
    {
        type            zeroGradient;
    }

    frontAndBack
    {
        type            empty;
    }
}

// ************************************************************************* //