FoamFile
{
    version     2.0;
    format      ascii;
    class       dictionary;
    object      chemistryProperties;
}
// * * * * * * * * * * * * * * * * * * * * * * * * * * * * * * * * * * * * * //

chemistrySolver  CHEMKIN;

chemistry        yes;

cellZone         chemistry;

reactionModel    EDC;

turbulentBurnRateModel  laminar;

chemistryTable
{
    fileName    "chemkin/chem.inp";
    species     ("CH4", "O2", "N2");
    reactions   ("CH4 + 2O2 -> CO2 + 2H2O");
}

// ************************************************************************* //