FoamFile
{
    version     2.0;
    format      ascii;
    class       dictionary;
    object      reactions;
}
// * * * * * * * * * * * * * * * * * * * * * * * * * * * * * * * * * * * * * //

reactions
{
    CH4 + 2 O2 = CO2 + 2 H2O;
    {
        A               1.0e+06;
        beta            0.0;
        Ta              10000.0;
    }
}

// ************************************************************************* //