FoamFile
{
    version     2.0;
    format      ascii;
    class       volScalarField;
    object      epsilon;
}
// * * * * * * * * * * * * * * * * * * * * * * * * * * * * * * * * * * * * * //

dimensions      [0 2 -3 0 0 0 0];

internalField   uniform 1.0;

boundaryField
{
    inlet
    {
        type            inletOutlet;
        inletValue      uniform 1.0;
        value           uniform 1.0;
    }

    outlet
    {
        type            zeroGradient;
    }

    walls
    {
        type            zeroGradient;
    }
}

// ************************************************************************* //