FoamFile
{
    format      ascii;
    class       dictionary;
    location    "system";
    object      fvSchemes;
}

ddtSchemes
{
    default         Euler;
}

ggradSchemes
{
    default         Gauss linear;
}

divSchemes
{
    default             none;

    div(phi,U)          Gauss linearUpwind grad(U);
    div(phi,e)          Gauss linearUpwind grad(e);

    div(phi,k)          Gauss upwind;
    div(phi,epsilon)    Gauss upwind;

    div(((rho*nuEff)*dev2(T(grad(U))))) Gauss linear;

    // Added for laminar flow compatibility
    div(tauMC)          Gauss linear;
}

laplacianSchemes
{
    default         Gauss linear corrected;
}

interpolationSchemes
{
    default         linear;
}

snGradSchemes
{
    default         corrected;
}

gradSchemes
{
    default         Gauss linear;
}