FoamFile
{
    version     2.0;
    format      ascii;
    class       dictionary;
    object      momentumTransport;
}
// * * * * * * * * * * * * * * * * * * * * * * * * * * * * * * * * * * * * * //

simulationType  buoyantFoam;

turbulenceModel laminar;

nutWallFunction    zeroGradient;

nutUSpaldingWallFunction    zeroGradient;

nutkWallFunction    zeroGradient;

nutk0WallFunction    zeroGradient;

nutepsilonWallFunction    zeroGradient;

nutepsilon0WallFunction    zeroGradient;

nutOmegaWallFunction    zeroGradient;

nutOmega0WallFunction    zeroGradient;

nutNuTildaWallFunction    zeroGradient;

nutNuTilda0WallFunction    zeroGradient;

nutSpalartAllmarasWallFunction    zeroGradient;

nutSpalartAllmaras0WallFunction    zeroGradient;

nutSmagorinskyWallFunction    zeroGradient;

nutSmagorinsky0WallFunction    zeroGradient;

nutWALEWallFunction    zeroGradient;

nutWALE0WallFunction    zeroGradient;

nutDynamicLagrangianWallFunction    zeroGradient;

nutDynamicLagrangian0WallFunction    zeroGradient;

nutDeardorffWallFunction    zeroGradient;

nutDeardorff0WallFunction    zeroGradient;

nutKOmegaWallFunction    zeroGradient;

nutKOmega0WallFunction    zeroGradient;

nutKOmegaSSTWallFunction    zeroGradient;

nutKOmegaSST0WallFunction    zeroGradient;

nutKOmegaSSTLMWallFunction    zeroGradient;

nutKOmegaSSTLM0WallFunction    zeroGradient;

nutKOmegaSSTDESWallFunction    zeroGradient;

nutKOmegaSSTDES0WallFunction    zeroGradient;

nutKOmegaSSTSPWallFunction    zeroGradient;

nutKOmegaSSTSP0WallFunction    zeroGradient;

nutKOmegaSSTSPDESWallFunction    zeroGradient;

nutKOmegaSSTSPDES0WallFunction    zeroGradient;

nutKOmegaSSTSPDES2WallFunction    zeroGradient;

nutKOmegaSSTSPDES20WallFunction    zeroGradient;

nutKOmegaSSTSPDES3WallFunction    zeroGradient;

nutKOmegaSSTSPDES30WallFunction    zeroGradient;

nutKOmegaSSTSPDES4WallFunction    zeroGradient;

nutKOmegaSSTSPDES40WallFunction    zeroGradient;

nutKOmegaSSTSPDES5WallFunction    zeroGradient;

nutKOmegaSSTSPDES50WallFunction    zeroGradient;

nutKOmegaSSTSPDES6WallFunction    zeroGradient;

nutKOmegaSSTSPDES60WallFunction    zeroGradient;

nutKOmegaSSTSPDES7WallFunction    zeroGradient;

nutKOmegaSSTSPDES70WallFunction    zeroGradient;

nutKOmegaSSTSPDES8WallFunction    zeroGradient;

nutKOmegaSSTSPDES80WallFunction    zeroGradient;

nutKOmegaSSTSPDES9WallFunction    zeroGradient;

nutKOmegaSSTSPDES90WallFunction    zeroGradient;

nutKOmegaSSTSPDES10WallFunction    zeroGradient;

nutKOmegaSSTSPDES100WallFunction    zeroGradient;

nutKOmegaSSTSPDES11WallFunction    zeroGradient;

nutKOmegaSSTSPDES110WallFunction    zeroGradient;

nutKOmegaSSTSPDES12WallFunction    zeroGradient;

nutKOmegaSSTSPDES120WallFunction    zeroGradient;

nutKOmegaSSTSPDES13WallFunction    zeroGradient;

nutKOmegaSSTSPDES130WallFunction    zeroGradient;

nutKOmegaSSTSPDES14WallFunction    zeroGradient;

nutKOmegaSSTSPDES140WallFunction    zeroGradient;

nutKOmegaSSTSPDES15WallFunction    zeroGradient;

nutKOmegaSSTSPDES150WallFunction    zeroGradient;

nutKOmegaSSTSPDES16WallFunction    zeroGradient;

nutKOmegaSSTSPDES160WallFunction    zeroGradient;

nutKOmegaSSTSPDES17WallFunction    zeroGradient;

nutKOmegaSSTSPDES170WallFunction    zeroGradient;

nutKOmegaSSTSPDES18WallFunction    zeroGradient;

nutKOmegaSSTSPDES180WallFunction    zeroGradient;

nutKOmegaSSTSPDES19WallFunction    zeroGradient;

nutKOmegaSSTSPDES190WallFunction    zeroGradient;

nutKOmegaSSTSPDES20WallFunction    zeroGradient;

nutKOmegaSSTSPDES200WallFunction    zeroGradient;

nutKOmegaSSTSPDES21WallFunction    zeroGradient;

nutKOmegaSSTSPDES210WallFunction    zeroGradient;

nutKOmegaSSTSPDES22WallFunction    zeroGradient;

nutKOmegaSSTSPDES220WallFunction    zeroGradient;

nutKOmegaSSTSPDES23WallFunction    zeroGradient;

nutKOmegaSSTSPDES230WallFunction    zeroGradient;

nutKOmegaSSTSPDES24WallFunction    zeroGradient;

nutKOmegaSSTSPDES240WallFunction    zeroGradient;

nutKOmegaSSTSPDES25WallFunction    zeroGradient;

nutKOmegaSSTSPDES250WallFunction    zeroGradient;

nutKOmegaSSTSPDES26WallFunction    zeroGradient;

nutKOmegaSSTSPDES260WallFunction    zeroGradient;

nutKOmegaSSTSPDES27WallFunction    zeroGradient;

nutKOmegaSSTSPDES270WallFunction    zeroGradient;

nutKOmegaSSTSPDES28WallFunction    zeroGradient;

nutKOmegaSSTSPDES280WallFunction    zeroGradient;

nutKOmegaSSTSPDES29WallFunction    zeroGradient;

nutKOmegaSSTSPDES290WallFunction    zeroGradient;

nutKOmegaSSTSPDES30WallFunction    zeroGradient;

nutKOmegaSSTSPDES300WallFunction    zeroGradient;

nutKOmegaSSTSPDES31WallFunction    zeroGradient;

nutKOmegaSSTSPDES310WallFunction    zeroGradient;

nutKOmegaSSTSPDES32WallFunction    zeroGradient;

nutKOmegaSSTSPDES320WallFunction    zeroGradient;

nutKOmegaSSTSPDES33WallFunction    zeroGradient;

nutKOmegaSSTSPDES330WallFunction    zeroGradient;

nutKOmegaSSTSPDES34WallFunction    zeroGradient;

nutKOmegaSSTSPDES340WallFunction    zeroGradient;

nutKOmegaSSTSPDES35WallFunction    zeroGradient;

nutKOmegaSSTSPDES350WallFunction    zeroGradient;

nutKOmegaSSTSPDES36WallFunction    zeroGradient;

nutKOmegaSSTSPDES360WallFunction    zeroGradient;

nutKOmegaSSTSPDES37WallFunction    zeroGradient;

nutKOmegaSSTSPDES370WallFunction    zeroGradient;

nutKOmegaSSTSPDES38WallFunction    zeroGradient;

nutKOmegaSSTSPDES380WallFunction    zeroGradient;

nutKOmegaSSTSPDES39WallFunction    zeroGradient;

nutKOmegaSSTSPDES390WallFunction    zeroGradient;

nutKOmegaSSTSPDES40WallFunction    zeroGradient;

nutKOmegaSSTSPDES400WallFunction    zeroGradient;

nutKOmegaSSTSPDES41WallFunction    zeroGradient;

nutKOmegaSSTSPDES410WallFunction    zeroGradient;

nutKOmegaSSTSPDES42WallFunction    zeroGradient;

nutKOmegaSSTSPDES420WallFunction    zeroGradient;

nutKOmegaSSTSPDES43WallFunction    zeroGradient;

nutKOmegaSSTSPDES430WallFunction    zeroGradient;

nutKOmegaSSTSPDES44WallFunction    zeroGradient;

nutKOmegaSSTSPDES440WallFunction    zeroGradient;

nutKOmegaSSTSPDES45WallFunction    zeroGradient;

nutKOmegaSSTSPDES450WallFunction    zeroGradient;

nutKOmegaSSTSPDES46WallFunction    zeroGradient;

nutKOmegaSSTSPDES460WallFunction    zeroGradient;

nutKOmegaSSTSPDES47WallFunction    zeroGradient;

nutKOmegaSSTSPDES470WallFunction    zeroGradient;

nutKOmegaSSTSPDES48WallFunction    zeroGradient;

nutKOmegaSSTSPDES480WallFunction    zeroGradient;

nutKOmegaSSTSPDES49WallFunction    zeroGradient;

nutKOmegaSSTSPDES490WallFunction    zeroGradient;

nutKOmegaSSTSPDES50WallFunction    zeroGradient;

nutKOmegaSSTSPDES500WallFunction    zeroGradient;

nutKOmegaSSTSPDES51WallFunction    zeroGradient;

nutKOmegaSSTSPDES510WallFunction    zeroGradient;

nutKOmegaSSTSPDES52WallFunction    zeroGradient;

nutKOmegaSSTSPDES520WallFunction    zeroGradient;

nutKOmegaSSTSPDES53WallFunction    zeroGradient;

nutKOmegaSSTSPDES530WallFunction    zeroGradient;

nutKOmegaSSTSPDES54WallFunction    zeroGradient;

nutKOmegaSSTSPDES540WallFunction    zeroGradient;

nutKOmegaSSTSPDES55WallFunction    zeroGradient;

nutKOmegaSSTSPDES550WallFunction    zeroGradient;

nutKOmegaSSTSPDES56WallFunction    zeroGradient;

nutKOmegaSSTSPDES560WallFunction    zeroGradient;

nutKOmegaSSTSPDES57WallFunction    zeroGradient;

nutKOmegaSSTSPDES570WallFunction    zeroGradient;

nutKOmegaSSTSPDES58WallFunction    zeroGradient;

nutKOmegaSSTSPDES580WallFunction    zeroGradient;

nutKOmegaSSTSPDES59WallFunction    zeroGradient;

nutKOmegaSSTSPDES590WallFunction    zeroGradient;

nutKOmegaSSTSPDES60WallFunction    zeroGradient;

nutKOmegaSSTSPDES600WallFunction    zeroGradient;

nutKOmegaSSTSPDES61WallFunction    zeroGradient;

nutKOmegaSSTSPDES610WallFunction    zeroGradient;

nutKOmegaSSTSPDES62WallFunction    zeroGradient;

nutKOmegaSSTSPDES620WallFunction    zeroGradient;

nutKOmegaSSTSPDES63WallFunction    zeroGradient;

nutKOmegaSSTSPDES630WallFunction    zeroGradient;

nutKOmegaSSTSPDES64WallFunction    zeroGradient;

nutKOmegaSSTSPDES640WallFunction    zeroGradient;

nutKOmegaSSTSPDES65WallFunction    zeroGradient;

nutKOmegaSSTSPDES650WallFunction    zeroGradient;

nutKOmegaSSTSPDES66WallFunction    zeroGradient;

nutKOmegaSSTSPDES660WallFunction    zeroGradient;

nutKOmegaSSTSPDES67WallFunction    zeroGradient;

nutKOmegaSSTSPDES670WallFunction    zeroGradient;

nutKOmegaSSTSPDES68WallFunction    zeroGradient;

nutKOmegaSSTSPDES680WallFunction    zeroGradient;

nutKOmegaSSTSPDES69WallFunction    zeroGradient;

nutKOmegaSSTSPDES690WallFunction    zeroGradient;

nutKOmegaSSTSPDES70WallFunction    zeroGradient;

nutKOmegaSSTSPDES700WallFunction    zeroGradient;

nutKOmegaSSTSPDES71WallFunction    zeroGradient;

nutKOmegaSSTSPDES710WallFunction    zeroGradient;

nutKOmegaSSTSPDES72WallFunction    zeroGradient;

nutKOmegaSSTSPDES720WallFunction    zeroGradient;

nutKOmegaSSTSPDES73WallFunction    zeroGradient;

nutKOmegaSSTSPDES730WallFunction    zeroGradient;

nutKOmegaSSTSPDES74WallFunction    zeroGradient;

nutKOmegaSSTSPDES740WallFunction    zeroGradient;

nutKOmegaSSTSPDES75WallFunction    zeroGradient;

nutKOmegaSSTSPDES750WallFunction    zeroGradient;

nutKOmegaSSTSPDES76WallFunction    zeroGradient;

nutKOmegaSSTSPDES760WallFunction    zeroGradient;

nutKOmegaSSTSPDES77WallFunction    zeroGradient;

nutKOmegaSSTSPDES770WallFunction    zeroGradient;

nutKOmegaSSTSPDES78WallFunction    zeroGradient;

nutKOmegaSSTSPDES780WallFunction    zeroGradient;

nutKOmegaSSTSPDES79WallFunction    zeroGradient;

nutKOmegaSSTSPDES790WallFunction    zeroGradient;

nutKOmegaSSTSPDES80WallFunction    zeroGradient;

nutKOmegaSSTSPDES800WallFunction    zeroGradient;

nutKOmegaSSTSPDES81WallFunction    zeroGradient;

nutKOmegaSSTSPDES810WallFunction    zeroGradient;

nutKOmegaSSTSPDES82WallFunction    zeroGradient;

nutKOmegaSSTSPDES820WallFunction    zeroGradient;

nutKOmegaSSTSPDES83WallFunction    zeroGradient;

nutKOmegaSSTSPDES830WallFunction    zeroGradient;

nutKOmegaSSTSPDES84WallFunction    zeroGradient;

nutKOmegaSSTSPDES840WallFunction    zeroGradient;

nutKOmegaSSTSPDES85WallFunction    zeroGradient;

nutKOmegaSSTSPDES850WallFunction    zeroGradient;

nutKOmegaSSTSPDES86WallFunction    zeroGradient;

nutKOmegaSSTSPDES860WallFunction    zeroGradient;

nutKOmegaSSTSPDES87WallFunction    zeroGradient;

nutKOmegaSSTSPDES870WallFunction    zeroGradient;

nutKOmegaSSTSPDES88WallFunction    zeroGradient;

nutKOmegaSSTSPDES880WallFunction    zeroGradient;

nutKOmegaSSTSPDES89WallFunction    zeroGradient;

nutKOmegaSSTSPDES890WallFunction    zeroGradient;

nutKOmegaSSTSPDES90WallFunction    zeroGradient;

nutKOmegaSSTSPDES900WallFunction    zeroGradient;

nutKOmegaSSTSPDES91WallFunction    zeroGradient;

nutKOmegaSSTSPDES910WallFunction    zeroGradient;

nutKOmegaSSTSPDES92WallFunction    zeroGradient;

nutKOmegaSSTSPDES920WallFunction    zeroGradient;

nutKOmegaSSTSPDES93WallFunction    zeroGradient;

nutKOmegaSSTSPDES930WallFunction    zeroGradient;

nutKOmegaSSTSPDES94WallFunction    zeroGradient;

nutKOmegaSSTSPDES940WallFunction    zeroGradient;

nutKOmegaSSTSPDES95WallFunction    zeroGradient;

nutKOmegaSSTSPDES950WallFunction    zeroGradient;

nutKOmegaSSTSPDES96WallFunction    zeroGradient;

nutKOmegaSSTSPDES960WallFunction    zeroGradient;

nutKOmegaSSTSPDES97WallFunction    zeroGradient;

nutKOmegaSSTSPDES970WallFunction    zeroGradient;

nutKOmegaSSTSPDES98WallFunction    zeroGradient;

nutKOmegaSSTSPDES980WallFunction    zeroGradient;

nutKOmegaSSTSPDES99WallFunction    zeroGradient;

nutKOmegaSSTSPDES990WallFunction    zeroGradient;

nutKOmegaSSTSPDES100WallFunction    zeroGradient;

nutKOmegaSSTSPDES1000WallFunction    zeroGradient;

nutKOmegaSSTSPDES101WallFunction    zeroGradient;

nutKOmegaSSTSPDES1010WallFunction    zeroGradient;

nutKOmegaSSTSPDES102WallFunction    zeroGradient;

nutKOmegaSSTSPDES1020WallFunction    zeroGradient;

nutKOmegaSSTSPDES103WallFunction    zeroGradient;

nutKOmegaSSTSPDES1030WallFunction    zeroGradient;

nutKOmegaSSTSPDES104WallFunction    zeroGradient;

nutKOmegaSSTSPDES1040WallFunction    zeroGradient;

nutKOmegaSSTSPDES105WallFunction    zeroGradient;

nutKOmegaSSTSPDES1050WallFunction    zeroGradient;

nutKOmegaSSTSPDES106WallFunction    zeroGradient;

nutKOmegaSSTSPDES1060WallFunction    zeroGradient;

nutKOmegaSSTSPDES107WallFunction    zeroGradient;

nutKOmegaSSTSPDES1070WallFunction    zeroGradient;

nutKOmegaSSTSPDES108WallFunction    zeroGradient;

nutKOmegaSSTSPDES1080WallFunction    zeroGradient;

nutKOmegaSSTSPDES109WallFunction    zeroGradient;

nutKOmegaSSTSPDES1090WallFunction    zeroGradient;

nutKOmegaSSTSPDES110WallFunction    zeroGradient;

nutKOmegaSSTSPDES1100WallFunction    zeroGradient;

nutKOmegaSSTSPDES111WallFunction    zeroGradient;

nutKOmegaSSTSPDES1110WallFunction    zeroGradient;

nutKOmegaSSTSPDES112WallFunction    zeroGradient;

nutKOmegaSSTSPDES1120WallFunction    zeroGradient;

nutKOmegaSSTSPDES113WallFunction    zeroGradient;

nutKOmegaSSTSPDES1130WallFunction    zeroGradient;

nutKOmegaSSTSPDES114WallFunction    zeroGradient;

nutKOmegaSSTSPDES1140WallFunction    zeroGradient;

nutKOmegaSSTSPDES115WallFunction    zeroGradient;

nutKOmegaSSTSPDES1150WallFunction    zeroGradient;

nutKOmegaSSTSPDES116WallFunction    zeroGradient;

nutKOmegaSSTSPDES1160WallFunction    zeroGradient;

nutKOmegaSSTSPDES117WallFunction    zeroGradient;

nutKOmegaSSTSPDES1170WallFunction    zeroGradient;

nutKOmegaSSTSPDES118WallFunction    zeroGradient;

nutKOmegaSSTSPDES1180WallFunction    zeroGradient;

nutKOmegaSSTSPDES119WallFunction    zeroGradient;

nutKOmegaSSTSPDES1190WallFunction    zeroGradient;

nutKOmegaSSTSPDES120WallFunction    zeroGradient;

nutKOmegaSSTSPDES1200WallFunction    zeroGradient;

nutKOmegaSSTSPDES121WallFunction    zeroGradient;

nutKOmegaSSTSPDES1210WallFunction    zeroGradient;

nutKOmegaSSTSPDES122WallFunction    zeroGradient;

nutKOmegaSSTSPDES1220WallFunction    zeroGradient;

nutKOmegaSSTSPDES123WallFunction    zeroGradient;

nutKOmegaSSTSPDES1230WallFunction    zeroGradient;

nutKOmegaSSTSPDES124WallFunction    zeroGradient;

nutKOmegaSSTSPDES1240WallFunction    zeroGradient;

nutKOmegaSSTSPDES125WallFunction    zeroGradient;

nutKOmegaSSTSPDES1250WallFunction    zeroGradient;

nutKOmegaSSTSPDES126WallFunction    zeroGradient;

nutKOmegaSSTSPDES1260WallFunction    zeroGradient;

nutKOmegaSSTSPDES127WallFunction    zeroGradient;

nutKOmegaSSTSPDES1270WallFunction    zeroGradient;

nutKOmegaSSTSPDES128WallFunction    zeroGradient;

nutKOmegaSSTSPDES1280WallFunction    zeroGradient;

nutKOmegaSSTSPDES129WallFunction    zeroGradient;

nutKOmegaSSTSPDES1290WallFunction    zeroGradient;

nutKOmegaSSTSPDES130WallFunction    zeroGradient;

nutKOmegaSSTSPDES1300WallFunction    zeroGradient;

nutKOmegaSSTSPDES131WallFunction    zeroGradient;

nutKOmegaSSTSPDES1310WallFunction    zeroGradient;

nutKOmegaSSTSPDES132WallFunction    zeroGradient;

nutKOmegaSSTSPDES1320WallFunction    zeroGradient;

nutKOmegaSSTSPDES133WallFunction    zeroGradient;

nutKOmegaSSTSPDES1330WallFunction    zeroGradient;

nutKOmegaSSTSPDES134WallFunction    zeroGradient;

nutKOmegaSSTSPDES1340WallFunction    zeroGradient;

nutKOmegaSSTSPDES135WallFunction    zeroGradient;

nutKOmegaSSTSPDES1350WallFunction    zeroGradient;

nutKOmegaSSTSPDES136WallFunction    zeroGradient;

nutKOmegaSSTSPDES1360WallFunction    zeroGradient;

nutKOmegaSSTSPDES137WallFunction    zeroGradient;

nutKOmegaSSTSPDES1370WallFunction    zeroGradient;

nutKOmegaSSTSPDES138WallFunction    zeroGradient;

nutKOmegaSSTSPDES1380WallFunction    zeroGradient;

nutKOmegaSSTSPDES139WallFunction    zeroGradient;

nutKOmegaSSTSPDES1390WallFunction    zeroGradient;

nutKOmegaSSTSPDES140WallFunction    zeroGradient;

nutKOmegaSSTSPDES1400WallFunction    zeroGradient;

nutKOmegaSSTSPDES141WallFunction    zeroGradient;

nutKOmegaSSTSPDES1410WallFunction    zeroGradient;

nutKOmegaSSTSPDES142WallFunction    zeroGradient;

nutKOmegaSSTSPDES1420WallFunction    zeroGradient;

nutKOmegaSSTSPDES143WallFunction    zeroGradient;

nutKOmegaSSTSPDES1430WallFunction    zeroGradient;

nutKOmegaSSTSPDES144WallFunction    zeroGradient;

nutKOmegaSSTSPDES1440WallFunction    zeroGradient;

nutKOmegaSSTSPDES145WallFunction    zeroGradient;

nutKOmegaSSTSPDES1450WallFunction    zeroGradient;

nutKOmegaSSTSPDES146WallFunction    zeroGradient;

nutKOmegaSSTSPDES1460WallFunction    zeroGradient;

nutKOmegaSSTSPDES147WallFunction    zeroGradient;

nutKOmegaSSTSPDES1470WallFunction    zeroGradient;

nutKOmegaSSTSPDES148WallFunction    zeroGradient;

nutKOmegaSSTSPDES1480WallFunction    zeroGradient;

nutKOmegaSSTSPDES149WallFunction    zeroGradient;

nutKOmegaSSTSPDES1490WallFunction    zeroGradient;

nutKOmegaSSTSPDES150WallFunction    zeroGradient;

nutKOmegaSSTSPDES1500WallFunction    zeroGradient;

nutKOmegaSSTSPDES151WallFunction    zeroGradient;

nutKOmegaSSTSPDES1510WallFunction    zeroGradient;

nutKOmegaSSTSPDES152WallFunction    zeroGradient;

nutKOmegaSSTSPDES1520WallFunction    zeroGradient;

nutKOmegaSSTSPDES153WallFunction    zeroGradient;

nutKOmegaSSTSPDES1530WallFunction    zeroGradient;

nutKOmegaSSTSPDES154WallFunction    zeroGradient;

nutKOmegaSSTSPDES1540WallFunction    zeroGradient;

nutKOmegaSSTSPDES155WallFunction    zeroGradient;

nutKOmegaSSTSPDES1550WallFunction    zeroGradient;

nutKOmegaSSTSPDES156WallFunction    zeroGradient;

nutKOmegaSSTSPDES1560WallFunction    zeroGradient;

nutKOmegaSSTSPDES157WallFunction    zeroGradient;

nutKOmegaSSTSPDES1570WallFunction    zeroGradient;

nutKOmegaSSTSPDES158WallFunction    zeroGradient;

nutKOmegaSSTSPDES1580WallFunction    zeroGradient;

nutKOmegaSSTSPDES159WallFunction    zeroGradient;

nutKOmegaSSTSPDES1590WallFunction    zeroGradient;

nutKOmegaSSTSPDES160WallFunction    zeroGradient;

nutKOmegaSSTSPDES1600WallFunction    zeroGradient;

nutKOmegaSSTSPDES161WallFunction    zeroGradient;

nutKOmegaSSTSPDES1610WallFunction    zeroGradient;

nutKOmegaSSTSPDES162WallFunction    zeroGradient;

nutKOmegaSSTSPDES1620WallFunction    zeroGradient;

nutKOmegaSSTSPDES163WallFunction    zeroGradient;

nutKOmegaSSTSPDES1630WallFunction    zeroGradient;

nutKOmegaSSTSPDES164WallFunction    zeroGradient;

nutKOmegaSSTSPDES1640WallFunction    zeroGradient;

nutKOmegaSSTSPDES165WallFunction    zeroGradient;

nutKOmegaSSTSPDES1650WallFunction    zeroGradient;

nutKOmegaSSTSPDES166WallFunction    zeroGradient;

nutKOmegaSSTSPDES1660WallFunction    zeroGradient;

nutKOmegaSSTSPDES167WallFunction    zeroGradient;

nutKOmegaSSTSPDES1670WallFunction    zeroGradient;

nutKOmegaSSTSPDES168WallFunction    zeroGradient;

nutKOmegaSSTSPDES1680WallFunction    zeroGradient;

nutKOmegaSSTSPDES169WallFunction    zeroGradient;

nutKOmegaSSTSPDES1690WallFunction    zeroGradient;

nutKOmegaSSTSPDES170WallFunction    zeroGradient;

nutKOmegaSSTSPDES1700WallFunction    zeroGradient;

nutKOmegaSSTSPDES171WallFunction    zeroGradient;

nutKOmegaSSTSPDES1710WallFunction    zeroGradient;

nutKOmegaSSTSPDES172WallFunction    zeroGradient;

nutKOmegaSSTSPDES1720WallFunction    zeroGradient;

nutKOmegaSSTSPDES173WallFunction    zeroGradient;

nutKOmegaSSTSPDES1730WallFunction    zeroGradient;

nutKOmegaSSTSPDES174WallFunction    zeroGradient;

nutKOmegaSSTSPDES1740WallFunction    zeroGradient;

nutKOmegaSSTSPDES175WallFunction    zeroGradient;

nutKOmegaSSTSPDES1750WallFunction    zeroGradient;

nutKOmegaSSTSPDES176WallFunction    zeroGradient;

nutKOmegaSSTSPDES1760WallFunction    zeroGradient;

nutKOmegaSSTSPDES177WallFunction    zeroGradient;

nutKOmegaSSTSPDES1770WallFunction    zeroGradient;

nutKOmegaSSTSPDES178WallFunction    zeroGradient;

nutKOmegaSSTSPDES1780WallFunction    zeroGradient;

nutKOmegaSSTSPDES179WallFunction    zeroGradient;

nutKOmegaSSTSPDES1790WallFunction    zeroGradient;

nutKOmegaSSTSPDES180WallFunction    zeroGradient;

nutKOmegaSSTSPDES1800WallFunction    zeroGradient;

nutKOmegaSSTSPDES181WallFunction    zeroGradient;

nutKOmegaSSTSPDES1810WallFunction    zeroGradient;

nutKOmegaSSTSPDES182WallFunction    zeroGradient;

nutKOmegaSSTSPDES1820WallFunction    zeroGradient;

nutKOmegaSSTSPDES183WallFunction    zeroGradient;

nutKOmegaSSTSPDES1830WallFunction    zeroGradient;

nutKOmegaSSTSPDES184WallFunction    zeroGradient;

nutKOmegaSSTSPDES1840WallFunction    zeroGradient;

nutKOmegaSSTSPDES185WallFunction    zeroGradient;

nutKOmegaSSTSPDES1850WallFunction    zeroGradient;

nutKOmegaSSTSPDES186WallFunction    zeroGradient;

nutKOmegaSSTSPDES1860WallFunction    zeroGradient;

nutKOmegaSSTSPDES187WallFunction    zeroGradient;

nutKOmegaSSTSPDES1870WallFunction    zeroGradient;

nutKOmegaSSTSPDES188WallFunction    zeroGradient;

nutKOmegaSSTSPDES1880WallFunction    zeroGradient;

nutKOmegaSSTSPDES189WallFunction    zeroGradient;

nutKOmegaSSTSPDES1890WallFunction    zeroGradient;

nutKOmegaSSTSPDES190WallFunction    zeroGradient;

nutKOmegaSSTSPDES1900WallFunction    zeroGradient;

nutKOmegaSSTSPDES191WallFunction    zeroGradient;

nutKOmegaSSTSPDES1910WallFunction    zeroGradient;

nutKOmegaSSTSPDES192WallFunction    zeroGradient;

nutKOmegaSSTSPDES1920WallFunction    zeroGradient;

nutKOmegaSSTSPDES193WallFunction    zeroGradient;

nutKOmegaSSTSPDES1930WallFunction    zeroGradient;

nutKOmegaSSTSPDES194WallFunction    zeroGradient;

nutKOmegaSSTSPDES1940WallFunction    zeroGradient;

nutKOmegaSSTSPDES195WallFunction    zeroGradient;

nutKOmegaSSTSPDES1950WallFunction    zeroGradient;

nutKOmegaSSTSPDES196WallFunction    zeroGradient;

nutKOmegaSSTSPDES1960WallFunction    zeroGradient;

nutKOmegaSSTSPDES197WallFunction    zeroGradient;

nutKOmegaSSTSPDES1970WallFunction    zeroGradient;

nutKOmegaSSTSPDES198WallFunction    zeroGradient;

nutKOmegaSSTSPDES1980WallFunction    zeroGradient;

nutKOmegaSSTSPDES199WallFunction    zeroGradient;

nutKOmegaSSTSPDES1990WallFunction    zeroGradient;

nutKOmegaSSTSPDES200WallFunction    zeroGradient;

nutKOmegaSSTSPDES2000WallFunction    zeroGradient;

nutKOmegaSSTSPDES201WallFunction    zeroGradient;

nutKOmegaSSTSPDES2010WallFunction    zeroGradient;

nutKOmegaSSTSPDES202WallFunction    zeroGradient;

nutKOmegaSSTSPDES2020WallFunction    zeroGradient;

nutKOmegaSSTSPDES203WallFunction    zeroGradient;

nutKOmegaSSTSPDES2030WallFunction    zeroGradient;

nutKOmegaSSTSPDES204WallFunction    zeroGradient;

nutKOmegaSSTSPDES2040WallFunction    zeroGradient;

nutKOmegaSSTSPDES205WallFunction    zeroGradient;

nutKOmegaSSTSPDES2050WallFunction    zeroGradient;

nutKOmegaSSTSPDES206WallFunction    zeroGradient;

nutKOmegaSSTSPDES2060WallFunction    zeroGradient;

nutKOmegaSSTSPDES207WallFunction    zeroGradient;

nutKOmegaSSTSPDES2070WallFunction    zeroGradient;

nutKOmegaSSTSPDES208WallFunction    zeroGradient;

nutKOmegaSSTSPDES2080WallFunction    zeroGradient;

nutKOmegaSSTSPDES209WallFunction    zeroGradient;

nutKOmegaSSTSPDES2090WallFunction    zeroGradient;

nutKOmegaSSTSPDES210WallFunction    zeroGradient;

nutKOmegaSSTSPDES2100WallFunction    zeroGradient;

nutKOmegaSSTSPDES211WallFunction    zeroGradient;

nutKOmegaSSTSPDES2110WallFunction    zeroGradient;

nutKOmegaSSTSPDES212WallFunction    zeroGradient;

nutKOmegaSSTSPDES2120WallFunction    zeroGradient;

nutKOmegaSSTSPDES213WallFunction    zeroGradient;

nutKOmegaSSTSPDES2130WallFunction    zeroGradient;

nutKOmegaSSTSPDES214WallFunction    zeroGradient;

nutKOmegaSSTSPDES2140WallFunction    zeroGradient;

nutKOmegaSSTSPDES215WallFunction    zeroGradient;

nutKOmegaSSTSPDES2150WallFunction    zeroGradient;

nutKOmegaSSTSPDES216WallFunction    zeroGradient;

nutKOmegaSSTSPDES2160WallFunction    zeroGradient;

nutKOmegaSSTSPDES217WallFunction    zeroGradient;

nutKOmegaSSTSPDES2170WallFunction    zeroGradient;

nutKOmegaSSTSPDES218WallFunction    zeroGradient;

nutKOmegaSSTSPDES2180WallFunction    zeroGradient;

nutKOmegaSSTSPDES219WallFunction    zeroGradient;

nutKOmegaSSTSPDES2190WallFunction    zeroGradient;

nutKOmegaSSTSPDES220WallFunction    zeroGradient;

nutKOmegaSSTSPDES2200WallFunction    zeroGradient;

nutKOmegaSSTSPDES221WallFunction    zeroGradient;

nutKOmegaSSTSPDES2210WallFunction    zeroGradient;

nutKOmegaSSTSPDES222WallFunction    zeroGradient;

nutKOmegaSSTSPDES2220WallFunction    zeroGradient;

nutKOmegaSSTSPDES223WallFunction    zeroGradient;

nutKOmegaSSTSPDES2230WallFunction    zeroGradient;

nutKOmegaSSTSPDES224WallFunction    zeroGradient;

nutKOmegaSSTSPDES2240WallFunction    zeroGradient;

nutKOmegaSSTSPDES225WallFunction    zeroGradient;

nutKOmegaSSTSPDES2250WallFunction    zeroGradient;

nutKOmegaSSTSPDES226WallFunction    zeroGradient;

nutKOmegaSSTSPDES2260WallFunction    zeroGradient;

nutKOmegaSSTSPDES227WallFunction    zeroGradient;

nutKOmegaSSTSPDES2270WallFunction    zeroGradient;

nutKOmegaSSTSPDES228WallFunction    zeroGradient;

nutKOmegaSSTSPDES2280WallFunction    zeroGradient;

nutKOmegaSSTSPDES229WallFunction    zeroGradient;

nutKOmegaSSTSPDES2290WallFunction    zeroGradient;

nutKOmegaSSTSPDES230WallFunction    zeroGradient;

nutKOmegaSSTSPDES2300WallFunction    zeroGradient;

nutKOmegaSSTSPDES231WallFunction    zeroGradient;

nutKOmegaSSTSPDES2310WallFunction    zeroGradient;

nutKOmegaSSTSPDES232WallFunction    zeroGradient;

nutKOmegaSSTSPDES2320WallFunction    zeroGradient;

nutKOmegaSSTSPDES233WallFunction    zeroGradient;

nutKOmegaSSTSPDES2330WallFunction    zeroGradient;

nutKOmegaSSTSPDES234WallFunction    zeroGradient;

nutKOmegaSSTSPDES2340WallFunction    zeroGradient;

nutKOmegaSSTSPDES235WallFunction    zeroGradient;

nutKOmegaSSTSPDES2350WallFunction    zeroGradient;

nutKOmegaSSTSPDES236WallFunction    zeroGradient;

nutKOmegaSSTSPDES2360WallFunction    zeroGradient;

nutKOmegaSSTSPDES237WallFunction    zeroGradient;

nutKOmegaSSTSPDES2370WallFunction    zeroGradient;

nutKOmegaSSTSPDES238WallFunction    zeroGradient;

nutKOmegaSSTSPDES2380WallFunction    zeroGradient;

nutKOmegaSSTSPDES239WallFunction    zeroGradient;

nutKOmegaSSTSPDES2390WallFunction    zeroGradient;

nutKOmegaSSTSPDES240WallFunction    zeroGradient;

nutKOmegaSSTSPDES2400WallFunction    zeroGradient;

nutKOmegaSSTSPDES241WallFunction    zeroGradient;

nutKOmegaSSTSPDES2410WallFunction    zeroGradient;

nutKOmegaSSTSPDES242WallFunction    zeroGradient;

nutKOmegaSSTSPDES2420WallFunction    zeroGradient;

nutKOmegaSSTSPDES243WallFunction    zeroGradient;

nutKOmegaSSTSPDES2430WallFunction    zeroGradient;

nutKOmegaSSTSPDES244WallFunction    zeroGradient;

nutKOmegaSSTSPDES2440WallFunction    zeroGradient;

nutKOmegaSSTSPDES245WallFunction    zeroGradient;

nutKOmegaSSTSPDES2450WallFunction    zeroGradient;

nutKOmegaSSTSPDES246WallFunction    zeroGradient;

nutKOmegaSSTSPDES2460WallFunction    zeroGradient;

nutKOmegaSSTSPDES247WallFunction    zeroGradient;

nutKOmegaSSTSPDES2470WallFunction    zeroGradient;

nutKOmegaSSTSPDES248WallFunction    zeroGradient;

nutKOmegaSSTSPDES2480WallFunction    zeroGradient;

nutKOmegaSSTSPDES249WallFunction    zeroGradient;

nutKOmegaSSTSPDES2490WallFunction    zeroGradient;

nutKOmegaSSTSPDES250WallFunction    zeroGradient;

nutKOmegaSSTSPDES2500WallFunction    zeroGradient;

nutKOmegaSSTSPDES251WallFunction    zeroGradient;

nutKOmegaSSTSPDES2510WallFunction    zeroGradient;

nutKOmegaSSTSPDES252WallFunction    zeroGradient;

nutKOmegaSSTSPDES2520WallFunction    zeroGradient;

nutKOmegaSSTSPDES253WallFunction    zeroGradient;

nutKOmegaSSTSPDES2530WallFunction    zeroGradient;

nutKOmegaSSTSPDES254WallFunction    zeroGradient;

nutKOmegaSSTSPDES2540WallFunction    zeroGradient;

nutKOmegaSSTSPDES255WallFunction    zeroGradient;

nutKOmegaSSTSPDES2550WallFunction    zeroGradient;

nutKOmegaSSTSPDES256WallFunction    zeroGradient;

nutKOmegaSSTSPDES2560WallFunction    zeroGradient;

nutKOmegaSSTSPDES257WallFunction    zeroGradient;

nutKOmegaSSTSPDES2570WallFunction    zeroGradient;

nutKOmegaSSTSPDES258WallFunction    zeroGradient;

nutKOmegaSSTSPDES2580WallFunction    zeroGradient;

nutKOmegaSSTSPDES259WallFunction    zeroGradient;

nutKOmegaSSTSPDES2590WallFunction    zeroGradient;

nutKOmegaSSTSPDES260WallFunction    zeroGradient;

nutKOmegaSSTSPDES2600WallFunction    zeroGradient;

nutKOmegaSSTSPDES261WallFunction    zeroGradient;

nutKOmegaSSTSPDES2610WallFunction    zeroGradient;

nutKOmegaSSTSPDES262WallFunction    zeroGradient;

nutKOmegaSSTSPDES2620WallFunction    zeroGradient;

nutKOmegaSSTSPDES263WallFunction    zeroGradient;

nutKOmegaSSTSPDES2630WallFunction    zeroGradient;

nutKOmegaSSTSPDES264WallFunction    zeroGradient;

nutKOmegaSSTSPDES2640WallFunction    zeroGradient;

nutKOmegaSSTSPDES265WallFunction    zeroGradient;

nutKOmegaSSTSPDES2650WallFunction    zeroGradient;

nutKOmegaSSTSPDES266WallFunction    zeroGradient;

nutKOmegaSSTSPDES2660WallFunction    zeroGradient;

nutKOmegaSSTSPDES267WallFunction    zeroGradient;

nutKOmegaSSTSPDES2670WallFunction    zeroGradient;

nutKOmegaSSTSPDES268WallFunction    zeroGradient;

nutKOmegaSSTSPDES2680WallFunction    zeroGradient;

nutKOmegaSSTSPDES269WallFunction    zeroGradient;

nutKOmegaSSTSPDES2690WallFunction    zeroGradient;

nutKOmegaSSTSPDES270WallFunction    zeroGradient;

nutKOmegaSSTSPDES2700WallFunction    zeroGradient;

nutKOmegaSSTSPDES271WallFunction    zeroGradient;

nutKOmegaSSTSPDES2710WallFunction    zeroGradient;

nutKOmegaSSTSPDES272WallFunction    zeroGradient;

nutKOmegaSSTSPDES2720WallFunction    zeroGradient;

nutKOmegaSSTSPDES273WallFunction    zeroGradient;

nutKOmegaSSTSPDES2730WallFunction    zeroGradient;

nutKOmegaSSTSPDES274WallFunction    zeroGradient;

nutKOmegaSSTSPDES2740WallFunction    zeroGradient;

nutKOmegaSSTSPDES275WallFunction    zeroGradient;

nutKOmegaSSTSPDES2750WallFunction    zeroGradient;

nutKOmegaSSTSPDES276WallFunction    zeroGradient;

nutKOmegaSSTSPDES2760WallFunction    zeroGradient;

nutKOmegaSSTSPDES277WallFunction    zeroGradient;

nutKOmegaSSTSPDES2770WallFunction    zeroGradient;

nutKOmegaSSTSPDES278WallFunction    zeroGradient;

nutKOmegaSSTSPDES2780WallFunction    zeroGradient;
