FoamFile
{
    version     2.0;
    format      ascii;
    class       dictionary;
    object      physicalProperties;
}
// * * * * * * * * * * * * * * * * * * * * * * * * * * * * * * * * * * * * * //

nu              nu [ 0 2 -1 0 0 0 0 ] 1.5e-5;

rho             rho [ 1 -3 0 0 0 0 0 ] 1.0;

Cp              Cp [ 0 2 -2 -1 0 0 0 ] 1005.0;

k               k [ 1 1 -3 -1 0 0 0 ] 0.024;

alpha           alpha [ 1 -1 -3 0 0 0 0 ] 2.4e-5;

beta            beta [ 0 0 -1 0 0 0 0 ] 3.4e-3;

Pr              Pr [ 0 0 0 0 0 0 0 ] 0.7;

gamma           gamma [ 0 0 0 0 0 0 0 ] 1.4;

R               R [ 0 2 -2 -1 0 0 0 ] 287.058;

mu              mu [ 1 -1 -1 0 0 0 0 ] 1.84e-5;

sigma           sigma [ 1 2 -3 -1 0 0 0 ] 0.0;

epsilon         epsilon [ 0 2 -2 0 0 0 0 ] 1.0;

phi             phi [ 0 3 -1 0 0 0 0 ] 0.0;

rhoInf          rhoInf [ 1 -3 0 0 0 0 0 ] 1.0;

pRef            pRef [ 1 -1 -2 0 0 0 0 ] 100000.0;

TRef            TRef [ 0 0 0 1 0 0 0 ] 300.0;

pAmbient        pAmbient [ 1 -1 -2 0 0 0 0 ] 100000.0;

TAmbient        TAmbient [ 0 0 0 1 0 0 0 ] 300.0;

T0              T0 [ 0 0 0 1 0 0 0 ] 300.0;

p0              p0 [ 1 -1 -2 0 0 0 0 ] 100000.0;

rho0            rho0 [ 1 -3 0 0 0 0 0 ] 1.0;

nu0             nu0 [ 0 2 -1 0 0 0 0 ] 1.5e-5;

Cp0             Cp0 [ 0 2 -2 -1 0 0 0 ] 1005.0;

k0              k0 [ 1 1 -3 -1 0 0 0 ] 0.024;

alpha0          alpha0 [ 1 -1 -3 0 0 0 0 ] 2.4e-5;

beta0           beta0 [ 0 0 -1 0 0 0 0 ] 3.4e-3;

Pr0             Pr0 [ 0 0 0 0 0 0 0 ] 0.7;

gamma0          gamma0 [ 0 0 0 0 0 0 0 ] 1.4;

R0              R0 [ 0 2 -2 -1 0 0 0 ] 287.058;

mu0             mu0 [ 1 -1 -1 0 0 0 0 ] 1.84e-5;

sigma0          sigma0 [ 1 2 -3 -1 0 0 0 ] 0.0;

epsilon0        epsilon0 [ 0 2 -2 0 0 0 0 ] 1.0;

phi0            phi0 [ 0 3 -1 0 0 0 0 ] 0.0;

// ************************************************************************* //