FoamFile
{
    version     2.0;
    format      ascii;
    class       dictionary;
    object      fvSchemes;
}
// * * * * * * * * * * * * * * * * * * * * * * * * * * * * * * * * * * * * * //

fluxScheme      Kurganov;

ddtSchemes
{
    default         Euler;
}

gradSchemes
{
    default         Gauss linear;
}

divSchemes
{
    div(phi,hU)     Gauss linearUpwind grad(hU);
    div(phiv,hU)    Gauss linearUpwind grad(hU);
    div(phi,h)      Gauss linearUpwind grad(h);
    div(phiv,h)     Gauss linearUpwind grad(h);
}

laplacianSchemes
{
    default         Gauss linear corrected;
}

interpolationSchemes
{
    default         linear;
}

snGradSchemes
{
    default         corrected;
}

wallDist
{
    method          meshWave;
}

// ************************************************************************* //