FoamFile
{
    version     2.0;
    format      ascii;
    class       dictionary;
    object      setFieldsDict;
}
// * * * * * * * * * * * * * * * * * * * * * * * * * * * * * * * * * * * * * //

defaultFieldValues
(
    volScalarFieldValue h 0.02
    volVectorFieldValue hU (0.001 0 0)
);

regions
(
    boxToCell
    {
        box (0.45 0.45 -1) (0.55 0.55 1);
        fieldValues
        (
            volScalarFieldValue h 0.02
            volVectorFieldValue hU (0.001 0 0)
        );
    }
);

// ************************************************************************* //