/*--------------------------------*- C++ -*----------------------------------*\
  =========                 |
  \\      /  F ield         | OpenFOAM: The Open Source CFD Toolbox
   \\    /   O peration     | Website:  https://openfoam.org
    \\  /    A nd           | Version:  10
     \\/     M anipulation  |
\*---------------------------------------------------------------------------*/
FoamFile
{
    format      ascii;
    class       polyBoundaryMesh;
    location    "constant/polyMesh";
    object      boundary;
}
// * * * * * * * * * * * * * * * * * * * * * * * * * * * * * * * * * * * * * //

6
(
    hotWall
    {
        type            wall;
        inGroups        List<word> 1(wall);
        nFaces          3600;
        startFace       529900;
    }
    coldWall
    {
        type            wall;
        inGroups        List<word> 1(wall);
        nFaces          3600;
        startFace       533500;
    }
    bottomWall
    {
        type            wall;
        inGroups        List<word> 1(wall);
        nFaces          4500;
        startFace       537100;
    }
    topWall
    {
        type            wall;
        inGroups        List<word> 1(wall);
        nFaces          4500;
        startFace       541600;
    }
    leftWall
    {
        type            wall;
        inGroups        List<word> 1(wall);
        nFaces          2000;
        startFace       546100;
    }
    rightWall
    {
        type            wall;
        inGroups        List<word> 1(wall);
        nFaces          2000;
        startFace       548100;
    }
)

// ************************************************************************* //
