FoamFile
{
    format      ascii;
    class       dictionary;
    location    "system";
    object      controlDict;
}


application     pimpleFoam;

startFrom       startTime;

startTime       0;

stopAt          endTime;

endTime         0.3;

deltaT          0.0001;

writeControl    adjustableRunTime;

writeInterval   0.01;

purgeWrite      0;

writeFormat     ascii;

writePrecision  6;

writeCompression off;

timeFormat      general;

timePrecision   6;

runTimeModifiable yes;

adjustTimeStep  no;

maxCo           1;

functions
{
    #includeFunc patchFlowRate(patch=inlet, funcName=inletFlowRate)
    #includeFunc patchFlowRate(patch=outlet, funcName=outletFlowRate)
}