FoamFile
{
    version     2.0;
    format      ascii;
    class       dictionary;
    object      shallowWaterProperties;
}

// * * * * * * * * * * * * * * * * * * * * * * * * * * * * * * * * * * * * * //

g           9.81;
nu          1e-06;
rho         1000;

// * * * * * * * * * * * * * * * * * * * * * * * * * * * * * * * * * * * * * //