FoamFile
{
    format      ascii;
    class       dictionary;
    location    "system";
    object      setFieldsDict;
}


defaultFieldValues
(
    volScalarFieldValue h 0.01
    volVectorFieldValue U (0.001 0 0)
);

regions
(
    boxToCell
    {
        box (-10 -10 -10) (10 10 10);
        fieldValues
        (
            volScalarFieldValue h 0.01
            volVectorFieldValue U (0.001 0 0)
        );
    }
);