FoamFile
{
    version     2.0;
    format      ascii;
    class       dictionary;
    object      physicalProperties;
}
// * * * * * * * * * * * * * * * * * * * * * * * * * * * * * * * * * * * * * //

rhoInf          1.0;
nu              0.001;
Cp              1000.0;
gamma           1.4;
R               287.0;
T0              1.0;
p0              100000.0;

// ************************************************************************* //