FoamFile
{
    version     2.0;
    format      ascii;
    class       dictionary;
    object      fvSolution;
}
// * * * * * * * * * * * * * * * * * * * * * * * * * * * * * * * * * * * * * //

solvers
{
    p
    {
        solver          GAMG;
        tolerance       1e-06;
        relTol          0.01;
        smoother        GaussSeidel;
    }

    pFinal
    {
        $p;
        relTol          0;
    }

    "(U|k|epsilon|nuTilda)"
    {
        solver          smoothSolver;
        smoother        symGaussSeidel;
        tolerance       1e-06;
        relTol          0.1;
    }

    "(U|k|epsilon|nuTilda)Final"
    {
        $U;
        relTol          0;
    }
}

PIMPLE
{
    nOuterCorrectors    10;
    nCorrectors         2;
    nNonOrthogonalCorrectors 0;

    residualControl
    {
        U               1e-3;
        p               1e-3;
        k               1e-3;
        epsilon         1e-3;
    }
}

relaxationFactors
{
    equations
    {
        ".*"            0.7;
    }
}

// ************************************************************************* //
