FoamFile
{
    format      ascii;
    class       dictionary;
    location    "constant";
    object      chemistryProperties;
}


#includeEtc "caseDicts/solvers/chemistry/TDAC/chemistryProperties.cfg"

chemistryType
{
    solver            ode;
}

chemistry       on;

initialChemicalTimeStep 1e-07;

odeCoeffs
{
    solver          seulex;
    absTol          1e-08;
    relTol          0.01;
}

tabulation
{
    scaleFactor
    {
        Temperature  1000;
    }
}

#include "reactions"