FoamFile
{
    format      ascii;
    class       dictionary;
    location    "constant";
    object      combustionProperties;
}


laminarFlameSpeedCorrelation none;