FoamFile
{
    format      ascii;
    class       dictionary;
    location    "constant";
    object      thermo.o2;
}

species
(
    O2
);

thermodynamics
{
    Tlow        300;
    Thigh       2000;
    Tcommon     1000;
    rho         1.429;
    Cp          29.37;
    Hf          0;
    S           205.15;
}