FoamFile
{
    format      ascii;
    class       dictionary;
    location    "constant";
    object      thermo.co2;
}

species
(
    CO2
);

thermodynamics
{
    Tlow        300;
    Thigh       2000;
    Tcommon     1000;
    rho         1.977;
    Cp          37.11;
    Hf          -393522;
    S           213.75;
}