FoamFile
{
    format      ascii;
    class       dictionary;
    location    "constant";
    object      thermo.h2o;
}

species
(
    H2O
);

thermodynamics
{
    Tlow        300;
    Thigh       2000;
    Tcommon     1000;
    rho         0.598;
    Cp          33.46;
    Hf          -241826;
    S           188.84;
}