FoamFile
{
    format      ascii;
    class       dictionary;
    location    "constant";
    object      thermo.ch4;
}

species
(
    CH4
);

thermodynamics
{
    Tlow        300;
    Thigh       2000;
    Tcommon     1000;
    rho         0.65;
    Cp          35.69;
    Hf          -74873.0;
    S           186.25;
}