FoamFile
{
    format      ascii;
    class       dictionary;
    location    "constant";
    object      chemistryProperties;
}


#includeEtc "caseDicts/solvers/chemistry/TDAC/chemistryProperties.cfg"

chemistryType
{
    solver            ode;
}

chemistry       on;

initialChemicalTimeStep 1e-7;

odeCoeffs
{
    solver          seulex;
    absTol          1e-8;
    relTol          1e-1;
}

tabulation
{
    
    scaleFactor
    {
        Temperature  1000;
    }
}

#include "reactions"