FoamFile
{
    format      ascii;
    class       dictionary;
    location    "constant";
    object      physicalProperties;
}

thermoType
{
    type            hePsiThermo;
    mixture         multiComponentMixture;
    transport       sutherland;
    thermo          janaf;
    energy          sensibleEnthalpy;
    equationOfState perfectGas;
    specie          specie;
    species         (CH4 O2 N2);
}

defaultSpecie N2;

fuel
{
    O2  0.233;
    CH4 0.767;
}

air
{
    N2  0.77;
    O2  0.23;
}