FoamFile
{
    format      ascii;
    class       dictionary;
    location    "constant";
    object      reactions;
}


#include "reactionsGRI"