FoamFile
{
    format      ascii;
    class       dictionary;
    location    "constant";
    object      thermocompressibleGas;
}


thermoType
{
    type            heRhoThermo;
    mixture         multiComponentMixture;
    transport       sutherland;
    thermo          janaf;
    energy          sensibleEnthalpy;
    equationOfState perfectGas;
    specie          specie;
}

defaultSpecie N2;

fuel
{
    O2  0.233;
    CH4 0.767;
}

air
{
    N2  0.77;
    O2  0.23;
}