FoamFile
{
    format      ascii;
    class       dictionary;
    object      blockMeshDict;
}


convertToMeters 0.001;

vertices
(
    (0 0 0)
    (1 0 0)
    (1 1 0)
    (0 1 0)
);

blocks
(
    quad (0 1 2 3) (10 10 1) simpleGrading (1 1 1)
);

boundary
(
    inlet
    {
        type patch;
        faces
        (
            (0 3 2 1)
        );
    }
    outlet
    {
        type patch;
        faces
        (
            (1 2 3 0)
        );
    }
    walls
    {
        type wall;
        faces
        (
            (0 1 2 3)
            (0 3 2 1)
        );
    }
);