/*--------------------------------*- C++ -*----------------------------------*\
  =========                 |
  \\      /  F ield         | OpenFOAM: The Open Source CFD Toolbox
   \\    /   O peration     | Website:  https://openfoam.org
    \\  /    A nd           | Version:  10
     \\/     M anipulation  |
\*---------------------------------------------------------------------------*/
FoamFile
{
    format      ascii;
    class       polyBoundaryMesh;
    location    "constant/polyMesh";
    object      boundary;
}
// * * * * * * * * * * * * * * * * * * * * * * * * * * * * * * * * * * * * * //

5
(
    inlet
    {
        type            patch;
        nFaces          20;
        startFace       4680;
    }
    outlet
    {
        type            patch;
        nFaces          20;
        startFace       4700;
    }
    walls
    {
        type            wall;
        inGroups        List<word> 1(wall);
        nFaces          80;
        startFace       4720;
    }
    cylinder
    {
        type            wall;
        inGroups        List<word> 1(wall);
        nFaces          120;
        startFace       4800;
    }
    frontAndBack
    {
        type            empty;
        inGroups        List<word> 1(empty);
        nFaces          4800;
        startFace       4920;
    }
)

// ************************************************************************* //
