FoamFile
{
    version     2.0;
    format      ascii;
    class       dictionary;
    object      fvSchemes;
}

// * * * * * * * * * * * * * * * * * * * * * * * * * * * * * * * * * * * * * //

ddtSchemes
{
    default         Euler;
}

gradSchemes
{
    default         Gauss linear;
    grad(p)         Gauss linear;
    grad(U)         Gauss linear;
    grad(T)         Gauss linear;
    grad(Y)         Gauss linear;
}

divSchemes
{
    default         none;
    div(phi,U)      bounded Gauss linearUpwind grad(U);
    div(phi,Y)      bounded Gauss linearUpwind grad(Y);
    div(phi,k)      bounded Gauss linearUpwind grad(k);
    div(phi,omega)  bounded Gauss linearUpwind grad(omega);
    div(phi,epsilon) bounded Gauss linearUpwind grad(epsilon);
    div(phi,R)      bounded Gauss linearUpwind grad(R);
    div(phi,nuTilda) bounded Gauss linearUpwind grad(nuTilda);
    div(phi,h)      bounded Gauss linearUpwind grad(h);
    div(phi,T)      bounded Gauss linearUpwind grad(T);
    div(phi,e)      bounded Gauss linearUpwind grad(e);
    div(phi,psi)    bounded Gauss linearUpwind grad(psi);
    div(phi,alphas) bounded Gauss linearUpwind grad(alphas);
    div(phi,omega)  bounded Gauss linearUpwind grad(omega);
    div(phi,omega)  bounded Gauss linearUpwind grad(omega);
    div(phi,nuTilda) bounded Gauss linearUpwind grad(nuTilda);
    div(phi,R)      bounded Gauss linearUpwind grad(R);
    div(phi,epsilon) bounded Gauss linearUpwind grad(epsilon);
    div(phi,k)      bounded Gauss linearUpwind grad(k);
    div(phi,Y)      bounded Gauss linearUpwind grad(Y);
    div(phi,U)      bounded Gauss linearUpwind grad(U);
    div(phi,T)      bounded Gauss linearUpwind grad(T);
    div(phi,h)      bounded Gauss linearUpwind grad(h);
    div(phi,e)      bounded Gauss linearUpwind grad(e);
    div(phi,psi)    bounded Gauss linearUpwind grad(psi);
    div(phi,alphas) bounded Gauss linearUpwind grad(alphas);
    div(phi,omega)  bounded Gauss linearUpwind grad(omega);
    div(phi,omega)  bounded Gauss linearUpwind grad(omega);
    div(phi,nuTilda) bounded Gauss linearUpwind grad(nuTilda);
    div(phi,R)      bounded Gauss linearUpwind grad(R);
    div(phi,epsilon) bounded Gauss linearUpwind grad(epsilon);
    div(phi,k)      bounded Gauss linearUpwind grad(k);
    div(phi,Y)      bounded Gauss linearUpwind grad(Y);
    div(phi,U)      bounded Gauss linearUpwind grad(U);
    div(phi,T)      bounded Gauss linearUpwind grad(T);
    div(phi,h)      bounded Gauss linearUpwind grad(h);
    div(phi,e)      bounded Gauss linearUpwind grad(e);
    div(phi,psi)    bounded Gauss linearUpwind grad(psi);
    div(phi,alphas) bounded Gauss linearUpwind grad(alphas);
    div(phi,omega)  bounded Gauss linearUpwind grad(omega);
    div(phi,omega)  bounded Gauss linearUpwind grad(omega);
    div(phi,nuTilda) bounded Gauss linearUpwind grad(nuTilda);
    div(phi,R)      bounded Gauss linearUpwind grad(R);
    div(phi,epsilon) bounded Gauss linearUpwind grad(epsilon);
    div(phi,k)      bounded Gauss linearUpwind grad(k);
    div(phi,Y)      bounded Gauss linearUpwind grad(Y);
    div(phi,U)      bounded Gauss linearUpwind grad(U);
    div(phi,T)      bounded Gauss linearUpwind grad(T);
    div(phi,h)      bounded Gauss linearUpwind grad(h);
    div(phi,e)      bounded Gauss linearUpwind grad(e);
    div(phi,psi)    bounded Gauss linearUpwind grad(psi);
    div(phi,alphas) bounded Gauss linearUpwind grad(alphas);
    div(phi,omega)  bounded Gauss linearUpwind grad(omega);
    div(phi,omega)  bounded Gauss linearUpwind grad(omega);
    div(phi,nuTilda) bounded Gauss linearUpwind grad(nuTilda);
    div(phi,R)      bounded Gauss linearUpwind grad(R);
    div(phi,epsilon) bounded Gauss linearUpwind grad(epsilon);
    div(phi,k)      bounded Gauss linearUpwind grad(k);
    div(phi,Y)      bounded Gauss linearUpwind grad(Y);
    div(phi,U)      bounded Gauss linearUpwind grad(U);
    div(phi,T)      bounded Gauss linearUpwind grad(T);
    div(phi,h)      bounded Gauss linearUpwind grad(h);
    div(phi,e)      bounded Gauss linearUpwind grad(e);
    div(phi,psi)    bounded Gauss linearUpwind grad(psi);
    div(phi,alphas) bounded Gauss linearUpwind grad(alphas);
    div(phi,omega)  bounded Gauss linearUpwind grad(omega);
    div(phi,omega)  bounded Gauss linearUpwind grad(omega);
    div(phi,nuTilda) bounded Gauss linearUpwind grad(nuTilda);
    div(phi,R)      bounded Gauss linearUpwind grad(R);
    div(phi,epsilon) bounded Gauss linearUpwind grad(epsilon);
    div(phi,k)      bounded Gauss linearUpwind grad(k);
    div(phi,Y)      bounded Gauss linearUpwind grad(Y);
    div(phi,U)      bounded Gauss linearUpwind grad(U);
    div(phi,T)      bounded Gauss linearUpwind grad(T);
    div(phi,h)      bounded Gauss linearUpwind grad(h);
    div(phi,e)      bounded Gauss linearUpwind grad(e);
    div(phi,psi)    bounded Gauss linearUpwind grad(psi);
    div(phi,alphas) bounded Gauss linearUpwind grad(alphas);
    div(phi,omega)  bounded Gauss linearUpwind grad(omega);
    div(phi,omega)  bounded Gauss linearUpwind grad(omega);
    div(phi,nuTilda) bounded Gauss linearUpwind grad(nuTilda);
    div(phi,R)      bounded Gauss linearUpwind grad(R);
    div(phi,epsilon) bounded Gauss linearUpwind grad(epsilon);
    div(phi,k)      bounded Gauss linearUpwind grad(k);
    div(phi,Y)      bounded Gauss linearUpwind grad(Y);
    div(phi,U)      bounded Gauss linearUpwind grad(U);
    div(phi,T)      bounded Gauss linearUpwind grad(T);
    div(phi,h)      bounded Gauss linearUpwind grad(h);
    div(phi,e)      bounded Gauss linearUpwind grad(e);
    div(phi,psi)    bounded Gauss linearUpwind grad(psi);
    div(phi,alphas) bounded Gauss linearUpwind grad(alphas);
    div(phi,omega)  bounded Gauss linearUpwind grad(omega);
    div(phi,omega)  bounded Gauss linearUpwind grad(omega);
    div(phi,nuTilda) bounded Gauss linearUpwind grad(nuTilda);
    div(phi,R)      bounded Gauss linearUpwind grad(R);
    div(phi,epsilon) bounded Gauss linearUpwind grad(epsilon);
    div(phi,k)      bounded Gauss linearUpwind grad(k);
    div(phi,Y)      bounded Gauss linearUpwind grad(Y);
    div(phi,U)      bounded Gauss linearUpwind grad(U);
    div(phi,T)      bounded Gauss linearUpwind grad(T);
    div(phi,h)      bounded Gauss linearUpwind grad(h);
    div(phi,e)      bounded Gauss linearUpwind grad(e);
    div(phi,psi)    bounded Gauss linearUpwind grad(psi);
    div(phi,alphas) bounded Gauss linearUpwind grad(alphas);
    div(phi,omega)  bounded Gauss linearUpwind grad(omega);
    div(phi,omega)  bounded Gauss linearUpwind grad(omega);
    div(phi,nuTilda) bounded Gauss linearUpwind grad(nuTilda);
    div(phi,R)      bounded Gauss linearUpwind grad(R);
    div(phi,epsilon) bounded Gauss linearUpwind grad(epsilon);
    div(phi,k)      bounded Gauss linearUpwind grad(k);
    div(phi,Y)      bounded Gauss linearUpwind grad(Y);
    div(phi,U)      bounded Gauss linearUpwind grad(U);
    div(phi,T)      bounded Gauss linearUpwind grad(T);
    div(phi,h)      bounded Gauss linearUpwind grad(h);
    div(phi,e)      bounded Gauss linearUpwind grad(e);
    div(phi,psi)    bounded Gauss linearUpwind grad(psi);
    div(phi,alphas) bounded Gauss linearUpwind grad(alphas);
    div(phi,omega)  bounded Gauss linearUpwind grad(omega);
    div(phi,omega)  bounded Gauss linearUpwind grad(omega);
    div(phi,nuTilda) bounded Gauss linearUpwind grad(nuTilda);
    div(phi,R)      bounded Gauss linearUpwind grad(R);
    div(phi,epsilon) bounded Gauss linearUpwind grad(epsilon);
    div(phi,k)      bounded Gauss linearUpwind grad(k);
    div(phi,Y)      bounded Gauss linearUpwind grad(Y);
    div(phi,U)      bounded Gauss linearUpwind grad(U);
    div(phi,T)      bounded Gauss linearUpwind grad(T);
    div(phi,h)      bounded Gauss linearUpwind grad(h);
    div(phi,e)      bounded Gauss linearUpwind grad(e);
    div(phi,psi)    bounded Gauss linearUpwind grad(psi);
    div(phi,alphas) bounded Gauss linearUpwind grad(alphas);
    div(phi,omega)  bounded Gauss linearUpwind grad(omega);
    div(phi,omega)  bounded Gauss linearUpwind grad(omega);
    div(phi,nuTilda) bounded Gauss linearUpwind grad(nuTilda);
    div(phi,R)      bounded Gauss linearUpwind grad(R);
    div(phi,epsilon) bounded Gauss linearUpwind grad(epsilon);
    div(phi,k)      bounded Gauss linearUpwind grad(k);
    div(phi,Y)      bounded Gauss linearUpwind grad(Y);
    div(phi,U)      bounded Gauss linearUpwind grad(U);
    div(phi,T)      bounded Gauss linearUpwind grad(T);
    div(phi,h)      bounded Gauss linearUpwind grad(h);
    div(phi,e)      bounded Gauss linearUpwind grad(e);
    div(phi,psi)    bounded Gauss linearUpwind grad(psi);
    div(phi,alphas) bounded Gauss linearUpwind grad(alphas);
    div(phi,omega)  bounded Gauss linearUpwind grad(omega);
    div(phi,omega)  bounded Gauss linearUpwind grad(omega);
    div(phi,nuTilda) bounded Gauss linearUpwind grad(nuTilda);
    div(phi,R)      bounded Gauss linearUpwind grad(R);
    div(phi,epsilon) bounded Gauss linearUpwind grad(epsilon);
    div(phi,k)      bounded Gauss linearUpwind grad(k);
    div(phi,Y)      bounded Gauss linearUpwind grad(Y);
    div(phi,U)      bounded Gauss linearUpwind grad(U);
    div(phi,T)      bounded Gauss linearUpwind grad(T);
    div(phi,h)      bounded Gauss linearUpwind grad(h);
    div(phi,e)      bounded Gauss linearUpwind grad(e);
    div(phi,psi)    bounded Gauss linearUpwind grad(psi);
    div(phi,alphas) bounded Gauss linearUpwind grad(alphas);
    div(phi,omega)  bounded Gauss linearUpwind grad(omega);
    div(phi,omega)  bounded Gauss linearUpwind grad(omega);
    div(phi,nuTilda) bounded Gauss linearUpwind grad(nuTilda);
    div(phi,R)      bounded Gauss linearUpwind grad(R);
    div(phi,epsilon) bounded Gauss linearUpwind grad(epsilon);
    div(phi,k)      bounded Gauss linearUpwind grad(k);
    div(phi,Y)      bounded Gauss linearUpwind grad(Y);
    div(phi,U)      bounded Gauss linearUpwind grad(U);
    div(phi,T)      bounded Gauss linearUpwind grad(T);
    div(phi,h)      bounded Gauss linearUpwind grad(h);
    div(phi,e)      bounded Gauss linearUpwind grad(e);
    div(phi,psi)    bounded Gauss linearUpwind grad(psi);
    div(phi,alphas) bounded Gauss linearUpwind grad(alphas);
    div(phi,omega)  bounded Gauss linearUpwind grad(omega);
    div(phi,omega)  bounded Gauss linearUpwind grad(omega);
    div(phi,nuTilda) bounded Gauss linearUpwind grad(nuTilda);
    div(phi,R)      bounded Gauss linearUpwind grad(R);
    div(phi,epsilon) bounded Gauss linearUpwind grad(epsilon);
    div(phi,k)      bounded Gauss linearUpwind grad(k);
    div(phi,Y)      bounded Gauss linearUpwind grad(Y);
    div(phi,U)      bounded Gauss linearUpwind grad(U);
    div(phi,T)      bounded Gauss linearUpwind grad(T);
    div(phi,h)      bounded Gauss linearUpwind grad(h);
    div(phi,e)      bounded Gauss linearUpwind grad(e);
    div(phi,psi)    bounded Gauss linearUpwind grad(psi);
    div(phi,alphas) bounded Gauss linearUpwind grad(alphas);
    div(phi,omega)  bounded Gauss linearUpwind grad(omega);
    div(phi,omega)  bounded Gauss linearUpwind grad(omega);
    div(phi,nuTilda) bounded Gauss linearUpwind grad(nuTilda);
    div(phi,R)      bounded Gauss linearUpwind grad(R);
    div(phi,epsilon) bounded Gauss linearUpwind grad(epsilon);
    div(phi,k)      bounded Gauss linearUpwind grad(k);
    div(phi,Y)      bounded Gauss linearUpwind grad(Y);
    div(phi,U)      bounded Gauss linearUpwind grad(U);
    div(phi,T)      bounded Gauss linearUpwind grad(T);
    div(phi,h)      bounded Gauss linearUpwind grad(h);
    div(phi,e)      bounded Gauss linearUpwind grad(e);
    div(phi,psi)    bounded Gauss linearUpwind grad(psi);
    div(phi,alphas) bounded Gauss linearUpwind grad(alphas);
    div(phi,omega)  bounded Gauss linearUpwind grad(omega);
    div(phi,omega)  bounded Gauss linearUpwind grad(omega);
    div(phi,nuTilda) bounded Gauss linearUpwind grad(nuTilda);
    div(phi,R)      bounded Gauss linearUpwind grad(R);
    div(phi,epsilon) bounded Gauss linearUpwind grad(epsilon);
    div(phi,k)      bounded Gauss linearUpwind grad(k);
    div(phi,Y)      bounded Gauss linearUpwind grad(Y);
    div(phi,U)      bounded Gauss linearUpwind grad(U);
    div(phi,T)      bounded Gauss linearUpwind grad(T);
    div(phi,h)      bounded Gauss linearUpwind grad(h);
    div(phi,e)      bounded Gauss linearUpwind grad(e);
    div(phi,psi)    bounded Gauss linearUpwind grad(psi);
    div(phi,alphas) bounded Gauss linearUpwind grad(alphas);
    div(phi,omega)  bounded Gauss linearUpwind grad(omega);
    div(phi,omega)  bounded Gauss linearUpwind grad(omega);
    div(phi,nuTilda) bounded Gauss linearUpwind grad(nuTilda);
    div(phi,R)      bounded Gauss linearUpwind grad(R);
    div(phi,epsilon) bounded Gauss linearUpwind grad(epsilon);
    div(phi,k)      bounded Gauss linearUpwind grad(k);
    div(phi,Y)      bounded Gauss linearUpwind grad(Y);
    div(phi,U)      bounded Gauss linearUpwind grad(U);
    div(phi,T)      bounded Gauss linearUpwind grad(T);
    div(phi,h)      bounded Gauss linearUpwind grad(h);
    div(phi,e)      bounded Gauss linearUpwind grad(e);
    div(phi,psi)    bounded Gauss linearUpwind grad(psi);
    div(phi,alphas) bounded Gauss linearUpwind grad(alphas);
    div(phi,omega)  bounded Gauss linearUpwind grad(omega);
    div(phi,omega)  bounded Gauss linearUpwind grad(omega);
    div(phi,nuTilda) bounded Gauss linearUpwind grad(nuTilda);
    div(phi,R)      bounded Gauss linearUpwind grad(R);
    div(phi,epsilon) bounded Gauss linearUpwind grad(epsilon);
    div(phi,k)      bounded Gauss linearUpwind grad(k);
    div(phi,Y)      bounded Gauss linearUpwind grad(Y);
    div(phi,U)      bounded Gauss linearUpwind grad(U);
    div(phi,T)      bounded Gauss linearUpwind grad(T);
    div(phi,h)      bounded Gauss linearUpwind grad(h);
    div(phi,e)      bounded Gauss linearUpwind grad(e);
    div(phi,psi)    bounded Gauss linearUpwind grad(psi);
    div(phi,alphas) bounded Gauss linearUpwind grad(alphas);
    div(phi,omega)  bounded Gauss linearUpwind grad(omega);
    div(phi,omega)  bounded Gauss linearUpwind grad(omega);
    div(phi,nuTilda) bounded Gauss linearUpwind grad(nuTilda);
    div(phi,R)      bounded Gauss linearUpwind grad(R);
    div(phi,epsilon) bounded Gauss linearUpwind grad(epsilon);
    div(phi,k)      bounded Gauss linearUpwind grad(k);
    div(phi,Y)      bounded Gauss linearUpwind grad(Y);
    div(phi,U)      bounded Gauss linearUpwind grad(U);
    div(phi,T)      bounded Gauss linearUpwind grad(T);
    div(phi,h)      bounded Gauss linearUpwind grad(h);
    div(phi,e)      bounded Gauss linearUpwind grad(e);
    div(phi,psi)    bounded Gauss linearUpwind grad(psi);
    div(phi,alphas) bounded Gauss linearUpwind grad(alphas);
    div(phi,omega)  bounded Gauss linearUpwind grad(omega);
    div(phi,omega)  bounded Gauss linearUpwind grad(omega);
    div(phi,nuTilda) bounded Gauss linearUpwind grad(nuTilda);
    div(phi,R)      bounded Gauss linearUpwind grad(R);
    div(phi,epsilon) bounded Gauss linearUpwind grad(epsilon);
    div(phi,k)      bounded Gauss linearUpwind grad(k);
    div(phi,Y)      bounded Gauss linearUpwind grad(Y);
    div(phi,U)      bounded Gauss linearUpwind grad(U);
    div(phi,T)      bounded Gauss linearUpwind grad(T);
    div(phi,h)      bounded Gauss linearUpwind grad(h);
    div(phi,e)      bounded Gauss linearUpwind grad(e);
    div(phi,psi)    bounded Gauss linearUpwind grad(psi);
    div(phi,alphas) bounded Gauss linearUpwind grad(alphas);
    div(phi,omega)  bounded Gauss linearUpwind grad(omega);
    div(phi,omega)  bounded Gauss linearUpwind grad(omega);
    div(phi,nuTilda) bounded Gauss linearUpwind grad(nuTilda);
    div(phi,R)      bounded Gauss linearUpwind grad(R);
    div(phi,epsilon) bounded Gauss linearUpwind grad(epsilon);
    div(phi,k)      bounded Gauss linearUpwind grad(k);
    div(phi,Y)      bounded Gauss linearUpwind grad(Y);
    div(phi,U)      bounded Gauss linearUpwind grad(U);
    div(phi,T)      bounded Gauss linearUpwind grad(T);
    div(phi,h)      bounded Gauss linearUpwind grad(h);
    div(phi,e)      bounded Gauss linearUpwind grad(e);
    div(phi,psi)    bounded Gauss linearUpwind grad(psi);
    div(phi,alphas) bounded Gauss linearUpwind grad(alphas);
    div(phi,omega)  bounded Gauss linearUpwind grad(omega);
    div(phi,omega)  bounded Gauss linearUpwind grad(omega);
    div(phi,nuTilda) bounded Gauss linearUpwind grad(nuTilda);
    div(phi,R)      bounded Gauss linearUpwind grad(R);
    div(phi,epsilon) bounded Gauss linearUpwind grad(epsilon);
    div(phi,k)      bounded Gauss linearUpwind grad(k);
    div(phi,Y)      bounded Gauss linearUpwind grad(Y);
    div(phi,U)      bounded Gauss linearUpwind grad(U);
    div(phi,T)      bounded Gauss linearUpwind grad(T);
    div(phi,h)      bounded Gauss linearUpwind grad(h);
    div(phi,e)      bounded Gauss linearUpwind grad(e);
    div(phi,psi)    bounded Gauss linearUpwind grad(psi);
    div(phi,alphas) bounded Gauss linearUpwind grad(alphas);
    div(phi,omega)  bounded Gauss linearUpwind grad(omega);
    div(phi,omega)  bounded Gauss linearUpwind grad(omega);
    div(phi,nuTilda) bounded Gauss linearUpwind grad(nuTilda);
    div(phi,R)      bounded Gauss linearUpwind grad(R);
    div(phi,epsilon) bounded Gauss linearUpwind grad(epsilon);
    div(phi,k)      bounded Gauss linearUpwind grad(k);
    div(phi,Y)      bounded Gauss linearUpwind grad(Y);
    div(phi,U)      bounded Gauss linearUpwind grad(U);
    div(phi,T)      bounded Gauss linearUpwind grad(T);
    div(phi,h)      bounded Gauss linearUpwind grad(h);
    div(phi,e)      bounded Gauss linearUpwind grad(e);
    div(phi,psi)    bounded Gauss linearUpwind grad(psi);
    div(phi,alphas) bounded Gauss linearUpwind grad(alphas);
    div(phi,omega)  bounded Gauss linearUpwind grad(omega);
    div(phi,omega)  bounded Gauss linearUpwind grad(omega);
    div(phi,nuTilda) bounded Gauss linearUpwind grad(nuTilda);
    div(phi,R)      bounded Gauss linearUpwind grad(R);
    div(phi,epsilon) bounded Gauss linearUpwind grad(epsilon);
    div(phi,k)      bounded Gauss linearUpwind grad(k);
    div(phi,Y)      bounded Gauss linearUpwind grad(Y);
    div(phi,U)      bounded Gauss linearUpwind grad(U);
    div(phi,T)      bounded Gauss linearUpwind grad(T);
    div(phi,h)      bounded Gauss linearUpwind grad(h);
    div(phi,e)      bounded Gauss linearUpwind grad(e);
    div(phi,psi)    bounded Gauss linearUpwind grad(psi);
    div(phi,alphas) bounded Gauss linearUpwind grad(alphas);
    div(phi,omega)  bounded Gauss linearUpwind grad(omega);
    div(phi,omega)  bounded Gauss linearUpwind grad(omega);
    div(phi,nuTilda) bounded Gauss linearUpwind grad(nuTilda);
    div(phi,R)      bounded Gauss linearUpwind grad(R);
    div(phi,epsilon) bounded Gauss linearUpwind grad(epsilon);
    div(phi,k)      bounded Gauss linearUpwind grad(k);
    div(phi,Y)      bounded Gauss linearUpwind grad(Y);
    div(phi,U)      bounded Gauss linearUpwind grad(U);
    div(phi,T)      bounded Gauss linearUpwind grad(T);
    div(phi,h)      bounded Gauss linearUpwind grad(h);
    div(phi,e)      bounded Gauss linearUpwind grad(e);
    div(phi,psi)    bounded Gauss linearUpwind grad(psi);
    div(phi,alphas) bounded Gauss linearUpwind grad(alphas);
    div(phi,omega)  bounded Gauss linearUpwind grad(omega);
    div(phi,omega)  bounded Gauss linearUpwind grad(omega);
    div(phi,nuTilda) bounded Gauss linearUpwind grad(nuTilda);
    div(phi,R)      bounded Gauss linearUpwind grad(R);
    div(phi,epsilon) bounded Gauss linearUpwind grad(epsilon);
    div(phi,k)      bounded Gauss linearUpwind grad(k);
    div(phi,Y)      bounded Gauss linearUpwind grad(Y);
    div(phi,U)      bounded Gauss linearUpwind grad(U);
    div(phi,T)      bounded Gauss linearUpwind grad(T);
    div(phi,h)      bounded Gauss linearUpwind grad(h);
    div(phi,e)      bounded Gauss linearUpwind grad(e);
    div(phi,psi)    bounded Gauss linearUpwind grad(psi);
    div(phi,alphas) bounded Gauss linearUpwind grad(alphas);
    div(phi,omega)  bounded Gauss linearUpwind grad(omega);
    div(phi,omega)  bounded Gauss linearUpwind grad(omega);
    div(phi,nuTilda) bounded Gauss linearUpwind grad(nuTilda);
    div(phi,R)      bounded Gauss linearUpwind grad(R);
    div(phi,epsilon) bounded Gauss linearUpwind grad(epsilon);
    div(phi,k)      bounded Gauss linearUpwind grad(k);
    div(phi,Y)      bounded Gauss linearUpwind grad(Y);
    div(phi,U)      bounded Gauss linearUpwind grad(U);
    div(phi,T)      bounded Gauss linearUpwind grad(T);
    div(phi,h)      bounded Gauss linearUpwind grad(h);
    div(phi,e)      bounded Gauss linearUpwind grad(e);
    div(phi,psi)    bounded Gauss linearUpwind grad(psi);
    div(phi,alphas) bounded Gauss linearUpwind grad(alphas);
    div(phi,omega)  bounded Gauss linearUpwind grad(omega);
    div(phi,omega)  bounded Gauss linearUpwind grad(omega);
    div(phi,nuTilda) bounded Gauss linearUpwind grad(nuTilda);
    div(phi,R)      bounded Gauss linearUpwind grad(R);
    div(phi,epsilon) bounded Gauss linearUpwind grad(epsilon);
    div(phi,k)      bounded Gauss linearUpwind grad(k);
    div(phi,Y)      bounded Gauss linearUpwind grad(Y);
    div(phi,U)      bounded Gauss linearUpwind grad(U);
    div(phi,T)      bounded Gauss linearUpwind grad(T);
    div(phi,h)      bounded Gauss linearUpwind grad(h);
    div(phi,e)      bounded Gauss linearUpwind grad(e);
    div(phi,psi)    bounded Gauss linearUpwind grad(psi);
    div(phi,alphas) bounded Gauss linearUpwind grad(alphas);
    div(phi,omega)  bounded Gauss linearUpwind grad(omega);
    div(phi,omega)  bounded Gauss linearUpwind grad(omega);
    div(phi,nuTilda) bounded Gauss linearUpwind grad(nuTilda);
    div(phi,R)      bounded Gauss linearUpwind grad(R);
    div(phi,epsilon) bounded Gauss linearUpwind grad(epsilon);
    div(phi,k)      bounded Gauss linearUpwind grad(k);
    div(phi,Y)      bounded Gauss linearUpwind grad(Y);
    div(phi,U)      bounded Gauss linearUpwind grad(U);
    div(phi,T)      bounded Gauss linearUpwind grad(T);
    div(phi,h)      bounded Gauss linearUpwind grad(h);
    div(phi,e)      bounded Gauss linearUpwind grad(e);
    div(phi,psi)    bounded Gauss linearUpwind grad(psi);
    div(phi,alphas) bounded Gauss linearUpwind grad(alphas);
    div(phi,omega)  bounded Gauss linearUpwind grad(omega);
    div(phi,omega)  bounded Gauss linearUpwind grad(omega);
    div(phi,nuTilda) bounded Gauss linearUpwind grad(nuTilda);
    div(phi,R)      bounded Gauss linearUpwind grad(R);
    div(phi,epsilon) bounded Gauss linearUpwind grad(epsilon);
    div(phi,k)      bounded Gauss linearUpwind grad(k);
    div(phi,Y)      bounded Gauss linearUpwind grad(Y);
    div(phi,U)      bounded Gauss linearUpwind grad(U);
    div(phi,T)      bounded Gauss linearUpwind grad(T);
    div(phi,h)      bounded Gauss linearUpwind grad(h);
    div(phi,e)      bounded Gauss linearUpwind grad(e);
    div(phi,psi)    bounded Gauss linearUpwind grad(psi);
    div(phi,alphas) bounded Gauss linearUpwind grad(alphas);
    div(phi,omega)  bounded Gauss linearUpwind grad(omega);
    div(phi,omega)  bounded Gauss linearUpwind grad(omega);
    div(phi,nuTilda) bounded Gauss linearUpwind grad(nuTilda);
    div(phi,R)      bounded Gauss linearUpwind grad(R);
    div(phi,epsilon) bounded Gauss linearUpwind grad(epsilon);
    div(phi,k)      bounded Gauss linearUpwind grad(k);
    div(phi,Y)      bounded Gauss linearUpwind grad(Y);
    div(phi,U)      bounded Gauss linearUpwind grad(U);
    div(phi,T)      bounded Gauss linearUpwind grad(T);
    div(phi,h)      bounded Gauss linearUpwind grad(h);
    div(phi,e)      bounded Gauss linearUpwind grad(e);
    div(phi,psi)    bounded Gauss linearUpwind grad(psi);
    div(phi,alphas) bounded Gauss linearUpwind grad(alphas);
    div(phi,omega)  bounded Gauss linearUpwind grad(omega);
    div(phi,omega)  bounded Gauss linearUpwind grad(omega);
    div(phi,nuTilda) bounded Gauss linearUpwind grad(nuTilda);
    div(phi,R)      bounded Gauss linearUpwind grad(R);
    div(phi,epsilon) bounded Gauss linearUpwind grad(epsilon);
    div(phi,k)      bounded Gauss linearUpwind grad(k);
    div(phi,Y)      bounded Gauss linearUpwind grad(Y);
    div(phi,U)      bounded Gauss linearUpwind grad(U);
    div(phi,T)      bounded Gauss linearUpwind grad(T);
    div(phi,h)      bounded Gauss linearUpwind grad(h);
    div(phi,e)      bounded Gauss linearUpwind grad(e);
    div(phi,psi)    bounded Gauss linearUpwind grad(psi);
    div(phi,alphas) bounded Gauss linearUpwind grad(alphas);
    div(phi,omega)  bounded Gauss linearUpwind grad(omega);
    div(phi,omega)  bounded Gauss linearUpwind grad(omega);
    div(phi,nuTilda) bounded Gauss linearUpwind grad(nuTilda);
    div(phi,R)      bounded Gauss linearUpwind grad(R);
    div(phi,epsilon) bounded Gauss linearUpwind grad(epsilon);
    div(phi,k)      bounded Gauss linearUpwind grad(k);
    div(phi,Y)      bounded Gauss linearUpwind grad(Y);
    div(phi,U)      bounded Gauss linearUpwind grad(U);
    div(phi,T)      bounded Gauss linearUpwind grad(T);
    div(phi,h)      bounded Gauss linearUpwind grad(h);
    div(phi,e)      bounded Gauss linearUpwind grad(e);
    div(phi,psi)    bounded Gauss linearUpwind grad(psi);
    div(phi,alphas) bounded Gauss linearUpwind grad(alphas);
    div(phi,omega)  bounded Gauss linearUpwind grad(omega);
    div(phi,omega)  bounded Gauss linearUpwind grad(omega);
    div(phi,nuTilda) bounded Gauss linearUpwind grad(nuTilda);
    div(phi,R)      bounded Gauss linearUpwind grad(R);
    div(phi,epsilon) bounded Gauss linearUpwind grad(epsilon);
    div(phi,k)      bounded Gauss linearUpwind grad(k);
    div(phi,Y)      bounded Gauss linearUpwind grad(Y);
    div(phi,U)      bounded Gauss linearUpwind grad(U);
    div(phi,T)      bounded Gauss linearUpwind grad(T);
    div(phi,h)      bounded Gauss linearUpwind grad(h);
    div(phi,e)      bounded Gauss linearUpwind grad(e);
    div(phi,psi)    bounded Gauss linearUpwind grad(psi);
    div(phi,alphas) bounded Gauss linearUpwind grad(alphas);
    div(phi,omega)  bounded Gauss linearUpwind grad(omega);
    div(phi,omega)  bounded Gauss linearUpwind grad(omega);
    div(phi,nuTilda) bounded Gauss linearUpwind grad(nuTilda);
    div(phi,R)      bounded Gauss linearUpwind grad(R);
    div(phi,epsilon) bounded Gauss linearUpwind grad(epsilon);
    div(phi,k)      bounded Gauss linearUpwind grad(k);
    div(phi,Y)      bounded Gauss linearUpwind grad(Y);
    div(phi,U)      bounded Gauss linearUpwind grad(U);
    div(phi,T)      bounded Gauss linearUpwind grad(T);
    div(phi,h)      bounded Gauss linearUpwind grad(h);
    div(phi,e)      bounded Gauss linearUpwind grad(e);
    div(phi,psi)    bounded Gauss linearUpwind grad(psi);
    div(phi,alphas) bounded Gauss linearUpwind grad(alphas);
    div(phi,omega)  bounded Gauss linearUpwind grad(omega);
    div(phi,omega)  bounded Gauss linearUpwind grad(omega);
    div(phi,nuTilda) bounded Gauss linearUpwind grad(nuTilda);
    div(phi,R)      bounded Gauss linearUpwind grad(R);
    div(phi,epsilon) bounded Gauss linearUpwind grad(epsilon);
    div(phi,k)      bounded Gauss linearUpwind grad(k);
    div(phi,Y)      bounded Gauss linearUpwind grad(Y);
    div(phi,U)      bounded Gauss linearUpwind grad(U);
    div(phi,T)      bounded Gauss linearUpwind grad(T);
    div(phi,h)      bounded Gauss linearUpwind grad(h);
    div(phi,e)      bounded Gauss linearUpwind grad(e);
    div(phi,psi)    bounded Gauss linearUpwind grad(psi);
    div(phi,alphas) bounded Gauss linearUpwind grad(alphas);
    div(phi,omega)  bounded Gauss linearUpwind grad(omega);
    div(phi,omega)  bounded Gauss linearUpwind grad(omega);
    div(phi,nuTilda) bounded Gauss linearUpwind grad(nuTilda);
    div(phi,R)      bounded Gauss linearUpwind grad(R);
    div(phi,epsilon) bounded Gauss linearUpwind grad(epsilon);
    div(phi,k)      bounded Gauss linearUpwind grad(k);
    div(phi,Y)      bounded Gauss linearUpwind grad(Y);
    div(phi,U)      bounded Gauss linearUpwind grad(U);
    div(phi,T)      bounded Gauss linearUpwind grad(T);
    div(phi,h)      bounded Gauss linearUpwind grad(h);
    div(phi,e)      bounded Gauss linearUpwind grad(e);
    div(phi,psi)    bounded Gauss linearUpwind grad(psi);
    div(phi,alphas) bounded Gauss linearUpwind grad(alphas);
    div(phi,omega)  bounded Gauss linearUpwind grad(omega);
    div(phi,omega)  bounded Gauss linearUpwind grad(omega);
    div(phi,nuTilda) bounded Gauss linearUpwind grad(nuTilda);
    div(phi,R)      bounded Gauss linearUpwind grad(R);
    div(phi,epsilon) bounded Gauss linearUpwind grad(epsilon);
    div(phi,k)      bounded Gauss linearUpwind grad(k);
    div(phi,Y)      bounded Gauss linearUpwind grad(Y);
    div(phi,U)      bounded Gauss linearUpwind grad(U);
    div(phi,T)      bounded Gauss linearUpwind grad(T);
    div(phi,h)      bounded Gauss linearUpwind grad(h);
    div(phi,e)      bounded Gauss linearUpwind grad(e);
    div(phi,psi)    bounded Gauss linearUpwind grad(psi);
    div(phi,alphas) bounded Gauss linearUpwind grad(alphas);
    div(phi,omega)  bounded Gauss linearUpwind grad(omega);
    div(phi,omega)  bounded Gauss linearUpwind grad(omega);
    div(phi,nuTilda) bounded Gauss linearUpwind grad(nuTilda);
    div(phi,R)      bounded Gauss linearUpwind grad(R);
    div(phi,epsilon) bounded Gauss linearUpwind grad(epsilon);
    div(phi,k)      bounded Gauss linearUpwind grad(k);
    div(phi,Y)      bounded Gauss linearUpwind grad(Y);
    div(phi,U)      bounded Gauss linearUpwind grad(U);
    div(phi,T)      bounded Gauss linearUpwind grad(T);
    div(phi,h)      bounded Gauss linearUpwind grad(h);
    div(phi,e)      bounded Gauss linearUpwind grad(e);
    div(phi,psi)    bounded Gauss linearUpwind grad(psi);
    div(phi,alphas) bounded Gauss linearUpwind grad(alphas);
    div(phi,omega)  bounded Gauss linearUpwind grad(omega);