FoamFile
{
    version     2.0;
    format      ascii;
    class       dictionary;
    location    "system";
    object      blockMeshDict;
}

// * * * * * * * * * * * * * * * * * * * * * * * * * * * * * * * * * * * * * //

convertToMeters 1;

vertices
(
    // Geometry: Forward-facing step
    // Step height = 0.1, Step length = 0.2, Total length = 1.0, Total height = 0.5
    // Block 1 (Inlet to step start)
    (0 0 0)
    (0.2 0 0)
    (0.2 0.1 0)
    (0 0.1 0)
    (0 0 0.1)
    (0.2 0 0.1)
    (0.2 0.1 0.1)
    (0 0.1 0.1)
    // Block 2 (Step to outlet)
    (0.2 0 0)
    (1.0 0 0)
    (1.0 0.5 0)
    (0.2 0.5 0)
    (0.2 0 0.1)
    (1.0 0 0.1)
    (1.0 0.5 0.1)
    (0.2 0.5 0.1)
);

blocks
(
    hex (0 1 2 3 4 5 6 7) (20 10 1) simpleGrading(1 1 1)
    hex (1 8 9 2 5 10 11 6) (80 40 1) simpleGrading(1 1 1)
);

edges
(
);

boundary
(
    inlet
    {
        type patch;
        faces
        (
            (0 4 7 3)
        );
    }
    outlet
    {
        type patch;
        faces
        (
            (1 5 11 9)
        );
    }
    floor
    {
        type wall;
        faces
        (
            (0 1 5 4)
            (1 8 10 5)
        );
    }
    top
    {
        type wall;
        faces
        (
            (3 7 11 9)
            (7 6 11 9) // Correction: (3 7 6 9) is top of block 2? No.
            // Let's re-verify faces for top.
            // Block 1 top: 3-7-6-2? No. 3-7-6-2 is wrong.
            // Vertices: 0(0,0,0), 1(0.2,0,0), 2(0.2,0.1,0), 3(0,0.1,0)
            //           4(0,0,0.1), 5(0.2,0,0.1), 6(0.2,0.1,0.1), 7(0,0.1,0.1)
            // Block 2 vertices: 1(0.2,0,0), 8(1.0,0,0), 9(1.0,0.5,0), 2(0.2,0.5,0)
            //                   5(0.2,0,0.1), 10(1.0,0,0.1), 11(1.0,0.5,0.1), 6(0.2,0.5,0.1)
            
            // Top of Block 1: 3-7-6-2
            // Top of Block 2: 2-6-11-9
            // Combined Top: (3 7 6 2) (2 6 11 9)
            (3 7 6 2)
            (2 6 11 9)
        );
    }
    step
    {
        type wall;
        faces
        (
            (1 2 6 5)
        );
    }
    frontAndBack
    {
        type empty;
        faces
        (
            (0 1 2 3)
            (4 5 6 7)
            (1 8 9 2)
            (5 10 11 6)
        );
    }
);

mergePatchPairs
(
);