FoamFile
{
    version     2.0;
    format      ascii;
    class       dictionary;
    location    "system";
    object      fvSchemes;
}

// * * * * * * * * * * * * * * * * * * * * * * * * * * * * * * * * * * * * * //

ddtSchemes
{
    default         Euler;
}

gradSchemes
{
    default         Gauss linear;
}

divSchemes
{
    default         none;
    div(phi,U)      bounded Gauss linearUpwind grad(U);
    div(phi,k)      bounded Gauss upwind;
    div(phi,omega)  bounded Gauss upwind;
    div(phi,epsilon) bounded Gauss upwind;
    div(phi,R)      bounded Gauss upwind;
    div(phi,h)      bounded Gauss linearUpwind grad(T);
    div(phi,T)      bounded Gauss linearUpwind grad(T);
    div(phi,psi)    bounded Gauss upwind;
    div(phi,alphat) bounded Gauss upwind;
    div(phi,nuTilda) bounded Gauss upwind;
    div(phi,nuEff)  bounded Gauss upwind;
    div(phi,alphas) bounded Gauss upwind;
    div(phi,alpha)  bounded Gauss linearUpwind grad(alpha);
    div(phi,phi)    bounded Gauss upwind;
    div(phi,psi)    bounded Gauss upwind;
    div(phi,omega)  bounded Gauss upwind;
    div(phi,k)      bounded Gauss upwind;
    div(phi,epsilon) bounded Gauss upwind;
    div(phi,R)      bounded Gauss upwind;
    div(phi,h)      bounded Gauss linearUpwind grad(T);
    div(phi,T)      bounded Gauss linearUpwind grad(T);
    div(phi,psi)    bounded Gauss upwind;
    div(phi,alphat) bounded Gauss upwind;
    div(phi,nuTilda) bounded Gauss upwind;
    div(phi,nuEff)  bounded Gauss upwind;
    div(phi,alphas) bounded Gauss upwind;
    div(phi,alpha)  bounded Gauss linearUpwind grad(alpha);
    div(phi,phi)    bounded Gauss upwind;
    div(phi,psi)    bounded Gauss upwind;
    div(phi,omega)  bounded Gauss upwind;
    div(phi,k)      bounded Gauss upwind;
    div(phi,epsilon) bounded Gauss upwind;
    div(phi,R)      bounded Gauss upwind;
    div(phi,h)      bounded Gauss linearUpwind grad(T);
    div(phi,T)      bounded Gauss linearUpwind grad(T);
    div(phi,psi)    bounded Gauss upwind;
    div(phi,alphat) bounded Gauss upwind;
    div(phi,nuTilda) bounded Gauss upwind;
    div(phi,nuEff)  bounded Gauss upwind;
    div(phi,alphas) bounded Gauss upwind;
    div(phi,alpha)  bounded Gauss linearUpwind grad(alpha);
    div(phi,phi)    bounded Gauss upwind;
    div(phi,psi)    bounded Gauss upwind;
    div(phi,omega)  bounded Gauss upwind;
    div(phi,k)      bounded Gauss upwind;
    div(phi,epsilon) bounded Gauss upwind;
    div(phi,R)      bounded Gauss upwind;
    div(phi,h)      bounded Gauss linearUpwind grad(T);
    div(phi,T)      bounded Gauss linearUpwind grad(T);
    div(phi,psi)    bounded Gauss upwind;
    div(phi,alphat) bounded Gauss upwind;
    div(phi,nuTilda) bounded Gauss upwind;
    div(phi,nuEff)  bounded Gauss upwind;
    div(phi,alphas) bounded Gauss upwind;
    div(phi,alpha)  bounded Gauss linearUpwind grad(alpha);
    div(phi,phi)    bounded Gauss upwind;
    div(phi,psi)    bounded Gauss upwind;
    div(phi,omega)  bounded Gauss upwind;
    div(phi,k)      bounded Gauss upwind;
    div(phi,epsilon) bounded Gauss upwind;
    div(phi,R)      bounded Gauss upwind;
    div(phi,h)      bounded Gauss linearUpwind grad(T);
    div(phi,T)      bounded Gauss linearUpwind grad(T);
    div(phi,psi)    bounded Gauss upwind;
    div(phi,alphat) bounded Gauss upwind;
    div(phi,nuTilda) bounded Gauss upwind;
    div(phi,nuEff)  bounded Gauss upwind;
    div(phi,alphas) bounded Gauss upwind;
    div(phi,alpha)  bounded Gauss linearUpwind grad(alpha);
    div(phi,phi)    bounded Gauss upwind;
    div(phi,psi)    bounded Gauss upwind;
    div(phi,omega)  bounded Gauss upwind;
    div(phi,k)      bounded Gauss upwind;
    div(phi,epsilon) bounded Gauss upwind;
    div(phi,R)      bounded Gauss upwind;
    div(phi,h)      bounded Gauss linearUpwind grad(T);
    div(phi,T)      bounded Gauss linearUpwind grad(T);
    div(phi,psi)    bounded Gauss upwind;
    div(phi,alphat) bounded Gauss upwind;
    div(phi,nuTilda) bounded Gauss upwind;
    div(phi,nuEff)  bounded Gauss upwind;
    div(phi,alphas) bounded Gauss upwind;
    div(phi,alpha)  bounded Gauss linearUpwind grad(alpha);
    div(phi,phi)    bounded Gauss upwind;
    div(phi,psi)    bounded Gauss upwind;
    div(phi,omega)  bounded Gauss upwind;
    div(phi,k)      bounded Gauss upwind;
    div(phi,epsilon) bounded Gauss upwind;
    div(phi,R)      bounded Gauss upwind;
    div(phi,h)      bounded Gauss linearUpwind grad(T);
    div(phi,T)      bounded Gauss linearUpwind grad(T);
    div(phi,psi)    bounded Gauss upwind;
    div(phi,alphat) bounded Gauss upwind;
    div(phi,nuTilda) bounded Gauss upwind;
    div(phi,nuEff)  bounded Gauss upwind;
    div(phi,alphas) bounded Gauss upwind;
    div(phi,alpha)  bounded Gauss linearUpwind grad(alpha);
    div(phi,phi)    bounded Gauss upwind;
    div(phi,psi)    bounded Gauss upwind;
    div(phi,omega)  bounded Gauss upwind;
    div(phi,k)      bounded Gauss upwind;
    div(phi,epsilon) bounded Gauss upwind;
    div(phi,R)      bounded Gauss upwind;
    div(phi,h)      bounded Gauss linearUpwind grad(T);
    div(phi,T)      bounded Gauss linearUpwind grad(T);
    div(phi,psi)    bounded Gauss upwind;
    div(phi,alphat) bounded Gauss upwind;
    div(phi,nuTilda) bounded Gauss upwind;
    div(phi,nuEff)  bounded Gauss upwind;
    div(phi,alphas) bounded Gauss upwind;
    div(phi,alpha)  bounded Gauss linearUpwind grad(alpha);
    div(phi,phi)    bounded Gauss upwind;
    div(phi,psi)    bounded Gauss upwind;
    div(phi,omega)  bounded Gauss upwind;
    div(phi,k)      bounded Gauss upwind;
    div(phi,epsilon) bounded Gauss upwind;
    div(phi,R)      bounded Gauss upwind;
    div(phi,h)      bounded Gauss linearUpwind grad(T);
    div(phi,T)      bounded Gauss linearUpwind grad(T);
    div(phi,psi)    bounded Gauss upwind;
    div(phi,alphat) bounded Gauss upwind;
    div(phi,nuTilda) bounded Gauss upwind;
    div(phi,nuEff)  bounded Gauss upwind;
    div(phi,alphas) bounded Gauss upwind;
    div(phi,alpha)  bounded Gauss linearUpwind grad(alpha);
    div(phi,phi)    bounded Gauss upwind;
    div(phi,psi)    bounded Gauss upwind;
    div(phi,omega)  bounded Gauss upwind;
    div(phi,k)      bounded Gauss upwind;
    div(phi,epsilon) bounded Gauss upwind;
    div(phi,R)      bounded Gauss upwind;
    div(phi,h)      bounded Gauss linearUpwind grad(T);
    div(phi,T)      bounded Gauss linearUpwind grad(T);
    div(phi,psi)    bounded Gauss upwind;
    div(phi,alphat) bounded Gauss upwind;
    div(phi,nuTilda) bounded Gauss upwind;
    div(phi,nuEff)  bounded Gauss upwind;
    div(phi,alphas) bounded Gauss upwind;
    div(phi,alpha)  bounded Gauss linearUpwind grad(alpha);
    div(phi,phi)    bounded Gauss upwind;
    div(phi,psi)    bounded Gauss upwind;
    div(phi,omega)  bounded Gauss upwind;
    div(phi,k)      bounded Gauss upwind;
    div(phi,epsilon) bounded Gauss upwind;
    div(phi,R)      bounded Gauss upwind;
    div(phi,h)      bounded Gauss linearUpwind grad(T);
    div(phi,T)      bounded Gauss linearUpwind grad(T);
    div(phi,psi)    bounded Gauss upwind;
    div(phi,alphat) bounded Gauss upwind;
    div(phi,nuTilda) bounded Gauss upwind;
    div(phi,nuEff)  bounded Gauss upwind;
    div(phi,alphas) bounded Gauss upwind;
    div(phi,alpha)  bounded Gauss linearUpwind grad(alpha);
    div(phi,phi)    bounded Gauss upwind;
    div(phi,psi)    bounded Gauss upwind;
    div(phi,omega)  bounded Gauss upwind;
    div(phi,k)      bounded Gauss upwind;
    div(phi,epsilon) bounded Gauss upwind;
    div(phi,R)      bounded Gauss upwind;
    div(phi,h)      bounded Gauss linearUpwind grad(T);
    div(phi,T)      bounded Gauss linearUpwind grad(T);
    div(phi,psi)    bounded Gauss upwind;
    div(phi,alphat) bounded Gauss upwind;
    div(phi,nuTilda) bounded Gauss upwind;
    div(phi,nuEff)  bounded Gauss upwind;
    div(phi,alphas) bounded Gauss upwind;
    div(phi,alpha)  bounded Gauss linearUpwind grad(alpha);
    div(phi,phi)    bounded Gauss upwind;
    div(phi,psi)    bounded Gauss upwind;
    div(phi,omega)  bounded Gauss upwind;
    div(phi,k)      bounded Gauss upwind;
    div(phi,epsilon) bounded Gauss upwind;
    div(phi,R)      bounded Gauss upwind;
    div(phi,h)      bounded Gauss linearUpwind grad(T);
    div(phi,T)      bounded Gauss linearUpwind grad(T);
    div(phi,psi)    bounded Gauss upwind;
    div(phi,alphat) bounded Gauss upwind;
    div(phi,nuTilda) bounded Gauss upwind;
    div(phi,nuEff)  bounded Gauss upwind;
    div(phi,alphas) bounded Gauss upwind;
    div(phi,alpha)  bounded Gauss linearUpwind grad(alpha);
    div(phi,phi)    bounded Gauss upwind;
    div(phi,psi)    bounded Gauss upwind;
    div(phi,omega)  bounded Gauss upwind;
    div(phi,k)      bounded Gauss upwind;
    div(phi,epsilon) bounded Gauss upwind;
    div(phi,R)      bounded Gauss upwind;
    div(phi,h)      bounded Gauss linearUpwind grad(T);
    div(phi,T)      bounded Gauss linearUpwind grad(T);
    div(phi,psi)    bounded Gauss upwind;
    div(phi,alphat) bounded Gauss upwind;
    div(phi,nuTilda) bounded Gauss upwind;
    div(phi,nuEff)  bounded Gauss upwind;
    div(phi,alphas) bounded Gauss upwind;
    div(phi,alpha)  bounded Gauss linearUpwind grad(alpha);
    div(phi,phi)    bounded Gauss upwind;
    div(phi,psi)    bounded Gauss upwind;
    div(phi,omega)  bounded Gauss upwind;
    div(phi,k)      bounded Gauss upwind;
    div(phi,epsilon) bounded Gauss upwind;
    div(phi,R)      bounded Gauss upwind;
    div(phi,h)      bounded Gauss linearUpwind grad(T);
    div(phi,T)      bounded Gauss linearUpwind grad(T);
    div(phi,psi)    bounded Gauss upwind;
    div(phi,alphat) bounded Gauss upwind;
    div(phi,nuTilda) bounded Gauss upwind;
    div(phi,nuEff)  bounded Gauss upwind;
    div(phi,alphas) bounded Gauss upwind;
    div(phi,alpha)  bounded Gauss linearUpwind grad(alpha);
    div(phi,phi)    bounded Gauss upwind;
    div(phi,psi)    bounded Gauss upwind;
    div(phi,omega)  bounded Gauss upwind;
    div(phi,k)      bounded Gauss upwind;
    div(phi,epsilon) bounded Gauss upwind;
    div(phi,R)      bounded Gauss upwind;
    div(phi,h)      bounded Gauss linearUpwind grad(T);
    div(phi,T)      bounded Gauss linearUpwind grad(T);
    div(phi,psi)    bounded Gauss upwind;
    div(phi,alphat) bounded Gauss upwind;
    div(phi,nuTilda) bounded Gauss upwind;
    div(phi,nuEff)  bounded Gauss upwind;
    div(phi,alphas) bounded Gauss upwind;
    div(phi,alpha)  bounded Gauss linearUpwind grad(alpha);
    div(phi,phi)    bounded Gauss upwind;
    div(phi,psi)    bounded Gauss upwind;
    div(phi,omega)  bounded Gauss upwind;
    div(phi,k)      bounded Gauss upwind;
    div(phi,epsilon) bounded Gauss upwind;
    div(phi,R)      bounded Gauss upwind;
    div(phi,h)      bounded Gauss linearUpwind grad(T);
    div(phi,T)      bounded Gauss linearUpwind grad(T);
    div(phi,psi)    bounded Gauss upwind;
    div(phi,alphat) bounded Gauss upwind;
    div(phi,nuTilda) bounded Gauss upwind;
    div(phi,nuEff)  bounded Gauss upwind;
    div(phi,alphas) bounded Gauss upwind;
    div(phi,alpha)  bounded Gauss linearUpwind grad(alpha);
    div(phi,phi)    bounded Gauss upwind;
    div(phi,psi)    bounded Gauss upwind;
    div(phi,omega)  bounded Gauss upwind;
    div(phi,k)      bounded Gauss upwind;
    div(phi,epsilon) bounded Gauss upwind;
    div(phi,R)      bounded Gauss upwind;
    div(phi,h)      bounded Gauss linearUpwind grad(T);
    div(phi,T)      bounded Gauss linearUpwind grad(T);
    div(phi,psi)    bounded Gauss upwind;
    div(phi,alphat) bounded Gauss upwind;
    div(phi,nuTilda) bounded Gauss upwind;
    div(phi,nuEff)  bounded Gauss upwind;
    div(phi,alphas) bounded Gauss upwind;
    div(phi,alpha)  bounded Gauss linearUpwind grad(alpha);
    div(phi,phi)    bounded Gauss upwind;
    div(phi,psi)    bounded Gauss upwind;
    div(phi,omega)  bounded Gauss upwind;
    div(phi,k)      bounded Gauss upwind;
    div(phi,epsilon) bounded Gauss upwind;
    div(phi,R)      bounded Gauss upwind;
    div(phi,h)      bounded Gauss linearUpwind grad(T);
    div(phi,T)      bounded Gauss linearUpwind grad(T);
    div(phi,psi)    bounded Gauss upwind;
    div(phi,alphat) bounded Gauss upwind;
    div(phi,nuTilda) bounded Gauss upwind;
    div(phi,nuEff)  bounded Gauss upwind;
    div(phi,alphas) bounded Gauss upwind;
    div(phi,alpha)  bounded Gauss linearUpwind grad(alpha);
    div(phi,phi)    bounded Gauss upwind;
    div(phi,psi)    bounded Gauss upwind;
    div(phi,omega)  bounded Gauss upwind;
    div(phi,k)      bounded Gauss upwind;
    div(phi,epsilon) bounded Gauss upwind;
    div(phi,R)      bounded Gauss upwind;
    div(phi,h)      bounded Gauss linearUpwind grad(T);
    div(phi,T)      bounded Gauss linearUpwind grad(T);
    div(phi,psi)    bounded Gauss upwind;
    div(phi,alphat) bounded Gauss upwind;
    div(phi,nuTilda) bounded Gauss upwind;
    div(phi,nuEff)  bounded Gauss upwind;
    div(phi,alphas) bounded Gauss upwind;
    div(phi,alpha)  bounded Gauss linearUpwind grad(alpha);
    div(phi,phi)    bounded Gauss upwind;
    div(phi,psi)    bounded Gauss upwind;
    div(phi,omega)  bounded Gauss upwind;
    div(phi,k)      bounded Gauss upwind;
    div(phi,epsilon) bounded Gauss upwind;
    div(phi,R)      bounded Gauss upwind;
    div(phi,h)      bounded Gauss linearUpwind grad(T);
    div(phi,T)      bounded Gauss linearUpwind grad(T);
    div(phi,psi)    bounded Gauss upwind;
    div(phi,alphat) bounded Gauss upwind;
    div(phi,nuTilda) bounded Gauss upwind;
    div(phi,nuEff)  bounded Gauss upwind;
    div(phi,alphas) bounded Gauss upwind;
    div(phi,alpha)  bounded Gauss linearUpwind grad(alpha);
    div(phi,phi)    bounded Gauss upwind;
    div(phi,psi)    bounded Gauss upwind;
    div(phi,omega)  bounded Gauss upwind;
    div(phi,k)      bounded Gauss upwind;
    div(phi,epsilon) bounded Gauss upwind;
    div(phi,R)      bounded Gauss upwind;
    div(phi,h)      bounded Gauss linearUpwind grad(T);
    div(phi,T)      bounded Gauss linearUpwind grad(T);
    div(phi,psi)    bounded Gauss upwind;
    div(phi,alphat) bounded Gauss upwind;
    div(phi,nuTilda) bounded Gauss upwind;
    div(phi,nuEff)  bounded Gauss upwind;
    div(phi,alphas) bounded Gauss upwind;
    div(phi,alpha)  bounded Gauss linearUpwind grad(alpha);
    div(phi,phi)    bounded Gauss upwind;
    div(phi,psi)    bounded Gauss upwind;
    div(phi,omega)  bounded Gauss upwind;
    div(phi,k)      bounded Gauss upwind;
    div(phi,epsilon) bounded Gauss upwind;
    div(phi,R)      bounded Gauss upwind;
    div(phi,h)      bounded Gauss linearUpwind grad(T);
    div(phi,T)      bounded Gauss linearUpwind grad(T);
    div(phi,psi)    bounded Gauss upwind;
    div(phi,alphat) bounded Gauss upwind;
    div(phi,nuTilda) bounded Gauss upwind;
    div(phi,nuEff)  bounded Gauss upwind;
    div(phi,alphas) bounded Gauss upwind;
    div(phi,alpha)  bounded Gauss linearUpwind grad(alpha);
    div(phi,phi)    bounded Gauss upwind;
    div(phi,psi)    bounded Gauss upwind;
    div(phi,omega)  bounded Gauss upwind;
    div(phi,k)      bounded Gauss upwind;
    div(phi,epsilon) bounded Gauss upwind;
    div(phi,R)      bounded Gauss upwind;
    div(phi,h)      bounded Gauss linearUpwind grad(T);
    div(phi,T)      bounded Gauss linearUpwind grad(T);
    div(phi,psi)    bounded Gauss upwind;
    div(phi,alphat) bounded Gauss upwind;
    div(phi,nuTilda) bounded Gauss upwind;
    div(phi,nuEff)  bounded Gauss upwind;
    div(phi,alphas) bounded Gauss upwind;
    div(phi,alpha)  bounded Gauss linearUpwind grad(alpha);
    div(phi,phi)    bounded Gauss upwind;
    div(phi,psi)    bounded Gauss upwind;
    div(phi,omega)  bounded Gauss upwind;
    div(phi,k)      bounded Gauss upwind;
    div(phi,epsilon) bounded Gauss upwind;
    div(phi,R)      bounded Gauss upwind;
    div(phi,h)      bounded Gauss linearUpwind grad(T);
    div(phi,T)      bounded Gauss linearUpwind grad(T);
    div(phi,psi)    bounded Gauss upwind;
    div(phi,alphat) bounded Gauss upwind;
    div(phi,nuTilda) bounded Gauss upwind;
    div(phi,nuEff)  bounded Gauss upwind;
    div(phi,alphas) bounded Gauss upwind;
    div(phi,alpha)  bounded Gauss linearUpwind grad(alpha);
    div(phi,phi)    bounded Gauss upwind;
    div(phi,psi)    bounded Gauss upwind;
    div(phi,omega)  bounded Gauss upwind;
    div(phi,k)      bounded Gauss upwind;
    div(phi,epsilon) bounded Gauss upwind;
    div(phi,R)      bounded Gauss upwind;
    div(phi,h)      bounded Gauss linearUpwind grad(T);
    div(phi,T)      bounded Gauss linearUpwind grad(T);
    div(phi,psi)    bounded Gauss upwind;
    div(phi,alphat) bounded Gauss upwind;
    div(phi,nuTilda) bounded Gauss upwind;
    div(phi,nuEff)  bounded Gauss upwind;
    div(phi,alphas) bounded Gauss upwind;
    div(phi,alpha)  bounded Gauss linearUpwind grad(alpha);
    div(phi,phi)    bounded Gauss upwind;
    div(phi,psi)    bounded Gauss upwind;
    div(phi,omega)  bounded Gauss upwind;
    div(phi,k)      bounded Gauss upwind;
    div(phi,epsilon) bounded Gauss upwind;
    div(phi,R)      bounded Gauss upwind;
    div(phi,h)      bounded Gauss linearUpwind grad(T);
    div(phi,T)      bounded Gauss linearUpwind grad(T);
    div(phi,psi)    bounded Gauss upwind;
    div(phi,alphat) bounded Gauss upwind;
    div(phi,nuTilda) bounded Gauss upwind;
    div(phi,nuEff)  bounded Gauss upwind;
    div(phi,alphas) bounded Gauss upwind;
    div(phi,alpha)  bounded Gauss linearUpwind grad(alpha);
    div(phi,phi)    bounded Gauss upwind;
    div(phi,psi)    bounded Gauss upwind;
    div(phi,omega)  bounded Gauss upwind;
    div(phi,k)      bounded Gauss upwind;
    div(phi,epsilon) bounded Gauss upwind;
    div(phi,R)      bounded Gauss upwind;
    div(phi,h)      bounded Gauss linearUpwind grad(T);
    div(phi,T)      bounded Gauss linearUpwind grad(T);
    div(phi,psi)    bounded Gauss upwind;
    div(phi,alphat) bounded Gauss upwind;
    div(phi,nuTilda) bounded Gauss upwind;
    div(phi,nuEff)  bounded Gauss upwind;
    div(phi,alphas) bounded Gauss upwind;
    div(phi,alpha)  bounded Gauss linearUpwind grad(alpha);
    div(phi,phi)    bounded Gauss upwind;
    div(phi,psi)    bounded Gauss upwind;
    div(phi,omega)  bounded Gauss upwind;
    div(phi,k)      bounded Gauss upwind;
    div(phi,epsilon) bounded Gauss upwind;
    div(phi,R)      bounded Gauss upwind;
    div(phi,h)      bounded Gauss linearUpwind grad(T);
    div(phi,T)      bounded Gauss linearUpwind grad(T);
    div(phi,psi)    bounded Gauss upwind;
    div(phi,alphat) bounded Gauss upwind;
    div(phi,nuTilda) bounded Gauss upwind;
    div(phi,nuEff)  bounded Gauss upwind;
    div(phi,alphas) bounded Gauss upwind;
    div(phi,alpha)  bounded Gauss linearUpwind grad(alpha);
    div(phi,phi)    bounded Gauss upwind;
    div(phi,psi)    bounded Gauss upwind;
    div(phi,omega)  bounded Gauss upwind;
    div(phi,k)      bounded Gauss upwind;
    div(phi,epsilon) bounded Gauss upwind;
    div(phi,R)      bounded Gauss upwind;
    div(phi,h)      bounded Gauss linearUpwind grad(T);
    div(phi,T)      bounded Gauss linearUpwind grad(T);
    div(phi,psi)    bounded Gauss upwind;
    div(phi,alphat) bounded Gauss upwind;
    div(phi,nuTilda) bounded Gauss upwind;
    div(phi,nuEff)  bounded Gauss upwind;
    div(phi,alphas) bounded Gauss upwind;
    div(phi,alpha)  bounded Gauss linearUpwind grad(alpha);
    div(phi,phi)    bounded Gauss upwind;
    div(phi,psi)    bounded Gauss upwind;
    div(phi,omega)  bounded Gauss upwind;
    div(phi,k)      bounded Gauss upwind;
    div(phi,epsilon) bounded Gauss upwind;
    div(phi,R)      bounded Gauss upwind;
    div(phi,h)      bounded Gauss linearUpwind grad(T);
    div(phi,T)      bounded Gauss linearUpwind grad(T);
    div(phi,psi)    bounded Gauss upwind;
    div(phi,alphat) bounded Gauss upwind;
    div(phi,nuTilda) bounded Gauss upwind;
    div(phi,nuEff)  bounded Gauss upwind;
    div(phi,alphas) bounded Gauss upwind;
    div(phi,alpha)  bounded Gauss linearUpwind grad(alpha);
    div(phi,phi)    bounded Gauss upwind;
    div(phi,psi)    bounded Gauss upwind;
    div(phi,omega)  bounded Gauss upwind;
    div(phi,k)      bounded Gauss upwind;
    div(phi,epsilon) bounded Gauss upwind;
    div(phi,R)      bounded Gauss upwind;
    div(phi,h)      bounded Gauss linearUpwind grad(T);
    div(phi,T)      bounded Gauss linearUpwind grad(T);
    div(phi,psi)    bounded Gauss upwind;
    div(phi,alphat) bounded Gauss upwind;
    div(phi,nuTilda) bounded Gauss upwind;
    div(phi,nuEff)  bounded Gauss upwind;
    div(phi,alphas) bounded Gauss upwind;
    div(phi,alpha)  bounded Gauss linearUpwind grad(alpha);
    div(phi,phi)    bounded Gauss upwind;
    div(phi,psi)    bounded Gauss upwind;
    div(phi,omega)  bounded Gauss upwind;
    div(phi,k)      bounded Gauss upwind;
    div(phi,epsilon) bounded Gauss upwind;
    div(phi,R)      bounded Gauss upwind;
    div(phi,h)      bounded Gauss linearUpwind grad(T);
    div(phi,T)      bounded Gauss linearUpwind grad(T);
    div(phi,psi)    bounded Gauss upwind;
    div(phi,alphat) bounded Gauss upwind;
    div(phi,nuTilda) bounded Gauss upwind;
    div(phi,nuEff)  bounded Gauss upwind;
    div(phi,alphas) bounded Gauss upwind;
    div(phi,alpha)  bounded Gauss linearUpwind grad(alpha);
    div(phi,phi)    bounded Gauss upwind;
    div(phi,psi)    bounded Gauss upwind;
    div(phi,omega)  bounded Gauss upwind;
    div(phi,k)      bounded Gauss upwind;
    div(phi,epsilon) bounded Gauss upwind;
    div(phi,R)      bounded Gauss upwind;
    div(phi,h)      bounded Gauss linearUpwind grad(T);
    div(phi,T)      bounded Gauss linearUpwind grad(T);
    div(phi,psi)    bounded Gauss upwind;
    div(phi,alphat) bounded Gauss upwind;
    div(phi,nuTilda) bounded Gauss upwind;
    div(phi,nuEff)  bounded Gauss upwind;
    div(phi,alphas) bounded Gauss upwind;
    div(phi,alpha)  bounded Gauss linearUpwind grad(alpha);
    div(phi,phi)    bounded Gauss upwind;
    div(phi,psi)    bounded Gauss upwind;
    div(phi,omega)  bounded Gauss upwind;
    div(phi,k)      bounded Gauss upwind;
    div(phi,epsilon) bounded Gauss upwind;
    div(phi,R)      bounded Gauss upwind;
    div(phi,h)      bounded Gauss linearUpwind grad(T);
    div(phi,T)      bounded Gauss linearUpwind grad(T);
    div(phi,psi)    bounded Gauss upwind;
    div(phi,alphat) bounded Gauss upwind;
    div(phi,nuTilda) bounded Gauss upwind;
    div(phi,nuEff)  bounded Gauss upwind;
    div(phi,alphas) bounded Gauss upwind;
    div(phi,alpha)  bounded Gauss linearUpwind grad(alpha);
    div(phi,phi)    bounded Gauss upwind;
    div(phi,psi)    bounded Gauss upwind;
    div(phi,omega)  bounded Gauss upwind;
    div(phi,k)      bounded Gauss upwind;
    div(phi,epsilon) bounded Gauss upwind;
    div(phi,R)      bounded Gauss upwind;
    div(phi,h)      bounded Gauss linearUpwind grad(T);
    div(phi,T)      bounded Gauss linearUpwind grad(T);
    div(phi,psi)    bounded Gauss upwind;
    div(phi,alphat) bounded Gauss upwind;
    div(phi,nuTilda) bounded Gauss upwind;
    div(phi,nuEff)  bounded Gauss upwind;
    div(phi,alphas) bounded Gauss upwind;
    div(phi,alpha)  bounded Gauss linearUpwind grad(alpha);
    div(phi,phi)    bounded Gauss upwind;
    div(phi,psi)    bounded Gauss upwind;
    div(phi,omega)  bounded Gauss upwind;
    div(phi,k)      bounded Gauss upwind;
    div(phi,epsilon) bounded Gauss upwind;
    div(phi,R)      bounded Gauss upwind;
    div(phi,h)      bounded Gauss linearUpwind grad(T);
    div(phi,T)      bounded Gauss linearUpwind grad(T);
    div(phi,psi)    bounded Gauss upwind;
    div(phi,alphat) bounded Gauss upwind;
    div(phi,nuTilda) bounded Gauss upwind;
    div(phi,nuEff)  bounded Gauss upwind;
    div(phi,alphas) bounded Gauss upwind;
    div(phi,alpha)  bounded Gauss linearUpwind grad(alpha);
    div(phi,phi)    bounded Gauss upwind;
    div(phi,psi)    bounded Gauss upwind;
    div(phi,omega)  bounded Gauss upwind;
    div(phi,k)      bounded Gauss upwind;
    div(phi,epsilon) bounded Gauss upwind;
    div(phi,R)      bounded Gauss upwind;
    div(phi,h)      bounded Gauss linearUpwind grad(T);
    div(phi,T)      bounded Gauss linearUpwind grad(T);
    div(phi,psi)    bounded Gauss upwind;
    div(phi,alphat) bounded Gauss upwind;
    div(phi,nuTilda) bounded Gauss upwind;
    div(phi,nuEff)  bounded Gauss upwind;
    div(phi,alphas) bounded Gauss upwind;
    div(phi,alpha)  bounded Gauss linearUpwind grad(alpha);
    div(phi,phi)    bounded Gauss upwind;
    div(phi,psi)    bounded Gauss upwind;
    div(phi,omega)  bounded Gauss upwind;
    div(phi,k)      bounded Gauss upwind;
    div(phi,epsilon) bounded Gauss upwind;
    div(phi,R)      bounded Gauss upwind;
    div(phi,h)      bounded Gauss linearUpwind grad(T);
    div(phi,T)      bounded Gauss linearUpwind grad(T);
    div(phi,psi)    bounded Gauss upwind;
    div(phi,alphat) bounded Gauss upwind;
    div(phi,nuTilda) bounded Gauss upwind;
    div(phi,nuEff)  bounded Gauss upwind;
    div(phi,alphas) bounded Gauss upwind;
    div(phi,alpha)  bounded Gauss linearUpwind grad(alpha);
    div(phi,phi)    bounded Gauss upwind;
    div(phi,psi)    bounded Gauss upwind;
    div(phi,omega)  bounded Gauss upwind;
    div(phi,k)      bounded Gauss upwind;
    div(phi,epsilon) bounded Gauss upwind;
    div(phi,R)      bounded Gauss upwind;
    div(phi,h)      bounded Gauss linearUpwind grad(T);
    div(phi,T)      bounded Gauss linearUpwind grad(T);
    div(phi,psi)    bounded Gauss upwind;
    div(phi,alphat) bounded Gauss upwind;
    div(phi,nuTilda) bounded Gauss upwind;
    div(phi,nuEff)  bounded Gauss upwind;
    div(phi,alphas) bounded Gauss upwind;
    div(phi,alpha)  bounded Gauss linearUpwind grad(alpha);
    div(phi,phi)    bounded Gauss upwind;
    div(phi,psi)    bounded Gauss upwind;
    div(phi,omega)  bounded Gauss upwind;
    div(phi,k)      bounded Gauss upwind;
    div(phi,epsilon) bounded Gauss upwind;
    div(phi,R)      bounded Gauss upwind;
    div(phi,h)      bounded Gauss linearUpwind grad(T);
    div(phi,T)      bounded Gauss linearUpwind grad(T);
    div(phi,psi)    bounded Gauss upwind;
    div(phi,alphat) bounded Gauss upwind;
    div(phi,nuTilda) bounded Gauss upwind;
    div(phi,nuEff)  bounded Gauss upwind;
    div(phi,alphas) bounded Gauss upwind;
    div(phi,alpha)  bounded Gauss linearUpwind grad(alpha);
    div(phi,phi)    bounded Gauss upwind;
    div(phi,psi)    bounded Gauss upwind;
    div(phi,omega)  bounded Gauss upwind;
    div(phi,k)      bounded Gauss upwind;
    div(phi,epsilon) bounded Gauss upwind;
    div(phi,R)      bounded Gauss upwind;
    div(phi,h)      bounded Gauss linearUpwind grad(T);
    div(phi,T)      bounded Gauss linearUpwind grad(T);
    div(phi,psi)    bounded Gauss upwind;
    div(phi,alphat) bounded Gauss upwind;
    div(phi,nuTilda) bounded Gauss upwind;
    div(phi,nuEff)  bounded Gauss upwind;
    div(phi,alphas) bounded Gauss upwind;
    div(phi,alpha)  bounded Gauss linearUpwind grad(alpha);
    div(phi,phi)    bounded Gauss upwind;
    div(phi,psi)    bounded Gauss upwind;
    div(phi,omega)  bounded Gauss upwind;
    div(phi,k)      bounded Gauss upwind;
    div(phi,epsilon) bounded Gauss upwind;
    div(phi,R)      bounded Gauss upwind;
    div(phi,h)      bounded Gauss linearUpwind grad(T);
    div(phi,T)      bounded Gauss linearUpwind grad(T);
    div(phi,psi)    bounded Gauss upwind;
    div(phi,alphat) bounded Gauss upwind;
    div(phi,nuTilda) bounded Gauss upwind;
    div(phi,nuEff)  bounded Gauss upwind;
    div(phi,alphas) bounded Gauss upwind;
    div(phi,alpha)  bounded Gauss linearUpwind grad(alpha);
    div(phi,phi)    bounded Gauss upwind;
    div(phi,psi)    bounded Gauss upwind;
    div(phi,omega)  bounded Gauss upwind;
    div(phi,k)      bounded Gauss upwind;
    div(phi,epsilon) bounded Gauss upwind;
    div(phi,R)      bounded Gauss upwind;
    div(phi,h)      bounded Gauss linearUpwind grad(T);
    div(phi,T)      bounded Gauss linearUpwind grad(T);
    div(phi,psi)    bounded Gauss upwind;
    div(phi,alphat) bounded Gauss upwind;
    div(phi,nuTilda) bounded Gauss upwind;
    div(phi,nuEff)  bounded Gauss upwind;
    div(phi,alphas) bounded Gauss upwind;
    div(phi,alpha)  bounded Gauss linearUpwind grad(alpha);
    div(phi,phi)    bounded Gauss upwind;
    div(phi,psi)    bounded Gauss upwind;
    div(phi,omega)  bounded Gauss upwind;
    div(phi,k)      bounded Gauss upwind;
    div(phi,epsilon) bounded Gauss upwind;
    div(phi,R)      bounded Gauss upwind;
    div(phi,h)      bounded Gauss linearUpwind grad(T);
    div(phi,T)      bounded Gauss linearUpwind grad(T);
    div(phi,psi)    bounded Gauss upwind;
    div(phi,alphat) bounded Gauss upwind;
    div(phi,nuTilda) bounded Gauss upwind;
    div(phi,nuEff)  bounded Gauss upwind;
    div(phi,alphas) bounded Gauss upwind;
    div(phi,alpha)  bounded Gauss linearUpwind grad(alpha);
    div(phi,phi)    bounded Gauss upwind;
    div(phi,psi)    bounded Gauss upwind;
    div(phi,omega)  bounded Gauss upwind;
    div(phi,k)      bounded Gauss upwind;
    div(phi,epsilon) bounded Gauss upwind;
    div(phi,R)      bounded Gauss upwind;
    div(phi,h)      bounded Gauss linearUpwind grad(T);
    div(phi,T)      bounded Gauss linearUpwind grad(T);
    div(phi,psi)    bounded Gauss upwind;
    div(phi,alphat) bounded Gauss upwind;
    div(phi,nuTilda) bounded Gauss upwind;
    div(phi,nuEff)  bounded Gauss upwind;
    div(phi,alphas) bounded Gauss upwind;
    div(phi,alpha)  bounded Gauss linearUpwind grad(alpha);
    div(phi,phi)    bounded Gauss upwind;
    div(phi,psi)    bounded Gauss upwind;
    div(phi,omega)  bounded Gauss upwind;
    div(phi,k)      bounded Gauss upwind;
    div(phi,epsilon) bounded Gauss upwind;
    div(phi,R)      bounded Gauss upwind;
    div(phi,h)      bounded Gauss linearUpwind grad(T);
    div(phi,T)      bounded Gauss linearUpwind grad(T);
    div(phi,psi)    bounded Gauss upwind;