FoamFile
{
    version     2.0;
    format      ascii;
    class       dictionary;
    object      combustionProperties;
}
// * * * * * * * * * * * * * * * * * * * * * * * * * * * * * * * * * * * * * //

combustionModel  laminar;

active          true;

laminarCoeffs
{
}

// ************************************************************************* //