FoamFile
{
    version     2.0;
    format      ascii;
    class       dictionary;
    object      blockMeshDict;
}
// * * * * * * * * * * * * * * * * * * * * * * * * * * * * * * * * * * * * * //

convertToMeters 1;

vertices
(
    (0 0 0)
    (0.001 0 0)
    (0.001 0.001 0)
    (0 0.001 0)
);

blocks
(
    hex (0 1 2 3) (10 10 1) simpleGrading (1 1 1)
);

edges
(
);

boundary
(
    inlet
    {
        type patch;
        faces
        (
            (0 1 2 3)
        );
    }

    outlet
    {
        type patch;
        faces
        (
            (0 1 2 3)
        );
    }

    walls
    {
        type wall;
        faces
        (
            (0 1 2 3)
        );
    }

    frontAndBack
    {
        type empty;
        faces
        (
            (0 1 2 3)
        );
    }
);

mergePatchPairs
(
);