FoamFile
{
    version     2.0;
    format      ascii;
    class       volScalarField;
    object      nut;
}

// * * * * * * * * * * * * * * * * * * * * * * * * * * * * * * * * * * * * * //

dimensions      [0 0 0 0 0 0 0];

internalField   uniform 0;

boundaryField
{
    front
    {
        type            calculated;
        value           uniform 0;
    }

    back
    {
        type            calculated;
        value           uniform 0;
    }

    bottom
    {
        type            calculated;
        value           uniform 0;
    }

    top
    {
        type            calculated;
        value           uniform 0;
    }

    left
    {
        type            calculated;
        value           uniform 0;
    }

    right
    {
        type            calculated;
        value           uniform 0;
    }
}

// * * * * * * * * * * * * * * * * * * * * * * * * * * * * * * * * * * * * * //