FoamFile
{
    version     2.0;
    format      ascii;
    class       dictionary;
    object      blockMeshDict;
}

convertToMeters 1;

vertices
(
    // Block 1 (Lower part, 0 to step height 0.2)
    (0 0 0)       // 0
    (1 0 0)       // 1
    (1 0.2 0)     // 2  <- Step corner
    (0 0.2 0)     // 3
    (0 0 0.5)     // 4
    (1 0 0.5)     // 5
    (1 0.2 0.5)   // 6
    (0 0.2 0.5)   // 7
    
    // Block 2 (Upper part, step height to ceiling 1.0)
    (1 0.2 0)     // 8 (Shared with 2)
    (2 0.2 0)     // 9
    (2 1 0)       // 10
    (1 1 0)       // 11
    (1 0.2 0.5)   // 12 (Shared with 6)
    (2 0.2 0.5)   // 13
    (2 1 0.5)     // 14
    (1 1 0.5)     // 15
);

blocks
(
    hex (0 1 2 3 4 5 6 7) (40 10 10) simpleGrading (1 1 1)
    hex (8 9 10 11 12 13 14 15) (40 10 10) simpleGrading (1 1 1)
);

boundary
(
    inlet
    {
        type patch;
        faces
        (
            (0 3 7 4)
        );
    }
    outlet
    {
        type patch;
        faces
        (
            (9 10 14 13)
        );
    }
    floor
    {
        type wall;
        faces
        (
            (0 1 5 4)
        );
    }
    ceiling
    {
        type wall;
        faces
        (
            (3 2 6 7)
            (11 10 14 15)
        );
    }
    step
    {
        type wall;
        faces
        (
            (1 2 6 5)
        );
    }
    frontAndBack
    {
        type empty;
        faces
        (
            (0 1 2 3)
            (4 5 6 7)
            (8 9 10 11)
            (12 13 14 15)
        );
    }
);

mergePatchPairs
(
);