FoamFile
{
    version     2.0;
    format      ascii;
    class       dictionary;
    object      fvSchemes;
}

ddtSchemes
{
    default         Euler;
}

gradSchemes
{
    default         Gauss linear;
}

divSchemes
{
    default         none;
    div(phi,U)      Gauss linearUpwind grad(U);
    div(phi,T)      Gauss linearUpwind grad(T);
    div(phi,k)      Gauss linearUpwind grad(k);
    div(phi,epsilon) Gauss linearUpwind grad(epsilon);
    div(phi,omega)  Gauss linearUpwind grad(omega);
    div(phi,h)      Gauss linearUpwind grad(h);
    div(phi,nuTilda) Gauss linearUpwind grad(nuTilda);
    div(phi,alphat) Gauss linearUpwind grad(alphat);
    div(phi,rho)    Gauss linearUpwind grad(rho);
    div(phi,e)      Gauss linearUpwind grad(e);
}

laplacianSchemes
{
    default         Gauss linear corrected;
}

interpolationSchemes
{
    default         linear;
}

snGradSchemes
{
    default         corrected;
}

wallDist
{
    method          meshWave;
}