FoamFile
{
    version     2.0;
    format      ascii;
    class       dictionary;
    object      fvSolution;
}
// * * * * * * * * * * * * * * * * * * * * * * * * * * * * * * * * * * * * * //

solvers
{
    p
    {
        solver          PCG;
        preconditioner  DIC;
        tolerance       1e-06;
        relTol          0.1;
    }

    U
    {
        solver          smoothSolver;
        smoother        GaussSeidel;
        nSweeps         2;
        tolerance       1e-06;
        relTol          0.1;
    }
}

PIMPLE
{
    nOuterCorrectors  1;
    nCorrectors       2;
    nNonOrthogonalCorrectors 0;
    momentumPredictor yes;

    // Define PISO section
    PISO
    {
        nCorrectors     2;
        momentumPredictor yes;
    }
}

relaxationFactors
{
    equations
    {
        U   0.7;
        p   0.3;
    }
}

// Add reference cell for pressure
pRefCell 0;
pRefPoint (0 0 0);

// ************************************************************************* //