FoamFile
{
    version     2.0;
    format      ascii;
    class       dictionary;
    object      transportProperties;
}

// * * * * * * * * * * * * * * * * * * * * * * * * * * * * * * * * * * * * * //

nu
{
    water       1e-6;
    air         1e-4;
}

rho
{
    water       1000;
    air         1;
}

// * * * * * * * * * * * * * * * * * * * * * * * * * * * * * * * * * * * * * //