FoamFile
{
    version     2.0;
    format      ascii;
    class       volScalarField;
    object      epsilon;
}

dimensions      [0 2 -3 0 0 0 0];

internalField   uniform 0.001;

boundaryField
{
    inlet
    {
        type            epsilonWallFunction;
        value           uniform 0.001;
    }

    outlet
    {
        type            inletOutlet;
        inletValue      uniform 0.001;
        value           uniform 0.001;
    }

    walls
    {
        type            epsilonWallFunction;
        value           uniform 0.001;
    }
}