FoamFile
{
    format      ascii;
    class       dictionary;
    object      blockMeshDict;
}


convertToMeters 1;

vertices
(
    (0 0 0)
    (9 0 0)
    (9 1 0)
    (0 1 0)
    (0 0 2)
    (9 0 2)
    (9 1 2)
    (0 1 2)
);

blocks
(
    hex (0 1 2 3 4 5 6 7) (9 1 2) simpleGrading (1 1 1)
);

boundary
(
    frontAndBack
    {
        type patch;
        faces
        (
            (0 4 7 3)
            (2 6 5 1)
        );
    }
    inlet
    {
        type patch;
        faces
        (
            (1 5 4 0)
        );
    }
    outlet
    {
        type patch;
        faces
        (
            (3 7 6 2)
        );
    }
    walls
    {
        type wall;
        faces
        (
            (0 3 2 1)
            (4 5 6 7)
        );
    }
);