FoamFile
{
    version     2.0;
    format      ascii;
    class       dictionary;
    object      gravitationalProperties;
}
// * * * * * * * * * * * * * * * * * * * * * * * * * * * * * * * * * * * * * //

gravity
{
    g               (0 -9.81 0);
    gValue          uniform (0 -9.81 0);
}

// ************************************************************************* //