FoamFile
{
    version     2.0;
    format      ascii;
    class       dictionary;
    location    "constant";
    object      transportProperties;
}

// * * * * * * * * * * * * * * * * * * * * * * * * * * * * * * * * * * * * * //

transportModel  Newtonian;

nu              (1.48e-05 1e-06);

rho             (1 1000);

sigma           0.072;

g               (0 0 -9.81);

// * * * * * * * * * * * * * * * * * * * * * * * * * * * * * * * * * * * * * //