FoamFile
{
    version     2.0;
    format      ascii;
    class       dictionary;
    location    "constant";
    object      phaseProperties;
}

// * * * * * * * * * * * * * * * * * * * * * * * * * * * * * * * * * * * * * //

phase1      water;

phase2      air;

phase2List  (air);

interfacialModels
{
    alpha1
    {
        phase1        water;
        phase2        air;
        type          kEpsilon;
    }
}

// * * * * * * * * * * * * * * * * * * * * * * * * * * * * * * * * * * * * * //