FoamFile
{
    format      ascii;
    class       volScalarField;
    object      nuTilda;
}


dimensions      [0 2 -1 0 0 0 0];

internalField   uniform 0;

boundaryField
{
    movingWall
    {
        type            zeroGradient;
    }

    fixedWalls
    {
        type            zeroGradient;
    }

    frontAndBack
    {
        type            empty;
    }
}