FoamFile
{
    format      ascii;
    class       volVectorField;
    object      U;
}


dimensions      [0 1 -1 0 0 0 0];

internalField   uniform (3.5 0 0);

boundaryField
{
    inlet
    {
        type            fixedValue;
        value           uniform (3.5 0 0);
    }

    top
    {
        type            fixedValue;
        value           uniform (2.61933 -0.50632 0.0);
    }

    outlet
    {
        type            zeroGradient;
    }

    bottom
    {
        type            zeroGradient;
    }
}