FoamFile
{
    version     2.0;
    format      ascii;
    class       volScalarField;
    object      g;
}
// * * * * * * * * * * * * * * * * * * * * * * * * * * * * * * * * * * * * * //

dimensions      [0 2 -2 0 0 0 0];

internalField   uniform 9.81;

boundaryField
{
    inlet
    {
        type            zeroGradient;
    }
    
    outlet
    {
        type            zeroGradient;
    }
    
    walls
    {
        type            zeroGradient;
    }
    
    frontAndBack
    {
        type            empty;
    }
}

// ************************************************************************* //