FoamFile
{
    version     2.0;
    format      ascii;
    class       dictionary;
    object      blockMeshDict;
}

scale 0.1;

vertices
(
    (0 0 0)
    (1 0 0)
    (1 1 0)
    (0 1 0)
    (0 0 0.1)
    (1 0 0.1)
    (1 1 0.1)
    (0 1 0.1)
);

blocks
(
    hex (0 1 2 3 4 5 6 7) (20 20 1) simpleGrading (1 1 1)
);

edges
(
);

boundary
(
    movingWall
    {
        type wall;
        faces
        (
            (2 3 7 6)
        );
    }
    fixedWalls
    {
        type wall;
        faces
        (
            (0 1 5 4)
            (0 3 7 4)
            (1 2 6 5)
        );
    }
    emptyFront
    {
        type empty;
        faces
        (
            (0 1 2 3)
        );
    }
    emptyBack
    {
        type empty;
        faces
        (
            (4 5 6 7)
        );
    }
);

mergePatchPairs
(
);