FoamFile
{
    version     2.0;
    format      ascii;
    class       dictionary;
    object      fvSolution;
}

// * * * * * * * * * * * * * * * * * * * * * * * * * * * * * * * * * * * * * //

solvers
{
    p
    {
        solver          GAMG;
        tolerance       1e-06;
        relTol          0.1;
        smoother        GaussSeidel;
    }

    "(U|k|epsilon|omega|T)"
    {
        solver          smoothSolver;
        smoother        symGaussSeidel;
        tolerance       1e-06;
        relTol          0.1;
    }
}

SIMPLE
{
    nNonOrthogonalCorrectors 0;
    consistent        yes;
}

PIMPLE
{
    nOuterCorrectors 3;
    nCorrectors     2;
    nNonOrthogonalCorrectors 0;
    consistent      yes;
    pRefCell        0;
    pRefValue       0;
}

relaxationFactors
{
    equations
    {
        U               0.7;
        "(k|epsilon|omega|T)" 0.7;
    }
    fields
    {
        p               0.3;
    }
}

mergeCorrection on;