FoamFile
{
    format      ascii;
    class       dictionary;
    location    "constant";
    object      momentumTransport;
}

turbulenceModel GeneralizedNewtonian;

GeneralizedNewtonianCoeffs
{
    simulationType  CrossPowerLaw;
    nuInf           10;
    m               0.4;
    n               3;
}