FoamFile
{
    version     2.0;
    format      ascii;
    class       dictionary;
    object      combustionProperties;
}
// * * * * * * * * * * * * * * * * * * * * * * * * * * * * * * * * * * * * * //

// Combustion model selection
combustionModel perfectGas;

// Chemistry reader
chemistryReader chemkin;

// Fuel species
fuelSpecie CH4;

// Oxidizer species
oxidiserSpecie O2;

// Inert species
inertSpecie N2;

// Reaction mechanism file
reactionFile reactions;

// Thermodynamic data file
thermoFile thermodynamics;

// Transport properties file
transportFile transport;

// Species list
species
(
    CH4
    O2
    N2
    CO2
    H2O
    CO
    H2
    OH
    H
    O
);

// Chemistry solver
chemistrySolver ode;

// Energy source term
energySource none;

// ************************************************************************* //