FoamFile
{
    version     2.0;
    format      ascii;
    class       dictionary;
    object      physicalProperties;
}
// * * * * * * * * * * * * * * * * * * * * * * * * * * * * * * * * * * * * * //

rhoInf          1.0;
pRef            100000.0;
gamma           1.4;
Cp              1000.0;
mu              1.5e-5;
Pr              0.7;
nu              1.5e-5;

// ************************************************************************* //