FoamFile
{
    version     2.0;
    format      ascii;
    class       dictionary;
    object      reactions;
}
// * * * * * * * * * * * * * * * * * * * * * * * * * * * * * * * * * * * * * //

// Reaction mechanism for methane combustion
reactions
(
    // CH4 + 2O2 -> CO2 + 2H2O
    {
        type            irreversibleArrhenius;
        reaction        "CH4 + 2 O2 = CO2 + 2 H2O";
        A               1.58e+11;
        beta            0.0;
        Ta              10000.0;
        species         (CH4 O2 CO2 H2O);
    }

    // CH4 + O2 -> CO + 2 H2
    {
        type            irreversibleArrhenius;
        reaction        "CH4 + O2 = CO + 2 H2";
        A               1.0e+10;
        beta            0.0;
        Ta              8000.0;
        species         (CH4 O2 CO H2);
    }

    // CH4 + 2 O2 -> CO2 + 2 H2O (Alternative)
    {
        type            irreversibleArrhenius;
        reaction        "CH4 + 2 O2 = CO2 + 2 H2O";
        A               2.0e+12;
        beta            0.0;
        Ta              12000.0;
        species         (CH4 O2 CO2 H2O);
    }

    // CH4 + O2 -> CO + 2 H2O
    {
        type            irreversibleArrhenius;
        reaction        "CH4 + O2 = CO + 2 H2O";
        A               5.0e+9;
        beta            0.0;
        Ta              6000.0;
        species         (CH4 O2 CO H2O);
    }

    // CH4 + 2 O2 -> CO2 + 2 H2O (Third reaction)
    {
        type            irreversibleArrhenius;
        reaction        "CH4 + 2 O2 = CO2 + 2 H2O";
        A               1.0e+13;
        beta            0.0;
        Ta              14000.0;
        species         (CH4 O2 CO2 H2O);
    }

    // CH4 + O2 -> CO2 + 2 H2O (Fourth reaction)
    {
        type            irreversibleArrhenius;
        reaction        "CH4 + O2 = CO2 + 2 H2O";
        A               3.0e+10;
        beta            0.0;
        Ta              10000.0;
        species         (CH4 O2 CO2 H2O);
    }

    // CH4 + O2 -> CO + H2O
    {
        type            irreversibleArrhenius;
        reaction        "CH4 + O2 = CO + H2O";
        A               1.0e+11;
        beta            0.0;
        Ta              9000.0;
        species         (CH4 O2 CO H2O);
    }

    // CH4 + O2 -> CO2 + H2O
    {
        type            irreversibleArrhenius;
        reaction        "CH4 + O2 = CO2 + H2O";
        A               2.0e+10;
        beta            0.0;
        Ta              11000.0;
        species         (CH4 O2 CO2 H2O);
    }

    // CH4 + O2 -> CO + 2 H2O (Fifth reaction)
    {
        type            irreversibleArrhenius;
        reaction        "CH4 + O2 = CO + 2 H2O";
        A               1.0e+12;
        beta            0.0;
        Ta              13000.0;
        species         (CH4 O2 CO H2O);
    }

    // CH4 + O2 -> CO2 + 2 H2O (Sixth reaction)
    {
        type            irreversibleArrhenius;
        reaction        "CH4 + O2 = CO2 + 2 H2O";
        A               1.0e+14;
        beta            0.0;
        Ta              15000.0;
        species         (CH4 O2 CO2 H2O);
    }
);

// ************************************************************************* //