FoamFile
{
    version     2.0;
    format      ascii;
    class       dictionary;
    object      fvSchemes;
}

// * * * * * * * * * * * * * * * * * * * * * * * * * * * * * * * * * * * * * //

ddtSchemes
{
    default         Euler;
}

gradSchemes
{
    default         Gauss linear;
}

divSchemes
{
    default         none;
    div(phi,U)      bounded Gauss linearUpwind grad(U);
    div(phi,k)      bounded Gauss upwind;
    div(phi,epsilon) bounded Gauss upwind;
    div(phi,T)      bounded Gauss linearUpwind grad(T);
    div(phi,h)      bounded Gauss linearUpwind grad(h);
    div(phi,omega)  bounded Gauss upwind;
    div(phi,nuTilda) bounded Gauss upwind;
    div(phi,R)      bounded Gauss linearUpwind grad(R);
    div(phi,alphat) bounded Gauss upwind;
    div(phi,alphatEff) bounded Gauss upwind;
    div(phi,psi)    bounded Gauss linearUpwind grad(psi);
    div(phi,psiEff) bounded Gauss linearUpwind grad(psi);
    div(phi,phiEff) bounded Gauss linearUpwind grad(phiEff);
    div(phi,phiEffEff) bounded Gauss linearUpwind grad(phiEffEff);
    div(phi,phiEffEffEff) bounded Gauss linearUpwind grad(phiEffEffEff);
    div(phi,phiEffEffEffEff) bounded Gauss linearUpwind grad(phiEffEffEffEff);
    div(phi,phiEffEffEffEffEff) bounded Gauss linearUpwind grad(phiEffEffEffEffEff);
    div(phi,phiEffEffEffEffEffEff) bounded Gauss linearUpwind grad(phiEffEffEffEffEffEff);
    div(phi,phiEffEffEffEffEffEffEff) bounded Gauss linearUpwind grad(phiEffEffEffEffEffEffEff);
    div(phi,phiEffEffEffEffEffEffEffEff) bounded Gauss linearUpwind grad(phiEffEffEffEffEffEffEffEff);
    div(phi,phiEffEffEffEffEffEffEffEffEff) bounded Gauss linearUpwind grad(phiEffEffEffEffEffEffEffEffEff);
    div(phi,phiEffEffEffEffEffEffEffEffEffEff) bounded Gauss linearUpwind grad(phiEffEffEffEffEffEffEffEffEffEff);
    div(phi,phiEffEffEffEffEffEffEffEffEffEffEff) bounded Gauss linearUpwind grad(phiEffEffEffEffEffEffEffEffEffEffEff);
    div(phi,phiEffEffEffEffEffEffEffEffEffEffEffEff) bounded Gauss linearUpwind grad(phiEffEffEffEffEffEffEffEffEffEffEffEff);
    div(phi,phiEffEffEffEffEffEffEffEffEffEffEffEffEff) bounded Gauss linearUpwind grad(phiEffEffEffEffEffEffEffEffEffEffEffEffEff);
    div(phi,phiEffEffEffEffEffEffEffEffEffEffEffEffEffEff) bounded Gauss linearUpwind grad(phiEffEffEffEffEffEffEffEffEffEffEffEffEffEff);
    div(phi,phiEffEffEffEffEffEffEffEffEffEffEffEffEffEffEff) bounded Gauss linearUpwind grad(phiEffEffEffEffEffEffEffEffEffEffEffEffEffEffEff);
    div(phi,phiEffEffEffEffEffEffEffEffEffEffEffEffEffEffEffEff) bounded Gauss linearUpwind grad(phiEffEffEffEffEffEffEffEffEffEffEffEffEffEffEffEff);
    div(phi,phiEffEffEffEffEffEffEffEffEffEffEffEffEffEffEffEffEff) bounded Gauss linearUpwind grad(phiEffEffEffEffEffEffEffEffEffEffEffEffEffEffEffEffEff);
    div(phi,phiEffEffEffEffEffEffEffEffEffEffEffEffEffEffEffEffEffEff) bounded Gauss linearUpwind grad(phiEffEffEffEffEffEffEffEffEffEffEffEffEffEffEffEffEffEff);
    div(phi,phiEffEffEffEffEffEffEffEffEffEffEffEffEffEffEffEffEffEffEff) bounded Gauss linearUpwind grad(phiEffEffEffEffEffEffEffEffEffEffEffEffEffEffEffEffEffEffEff);
    div(phi,phiEffEffEffEffEffEffEffEffEffEffEffEffEffEffEffEffEffEffEffEff) bounded Gauss linearUpwind grad(phiEffEffEffEffEffEffEffEffEffEffEffEffEffEffEffEffEffEffEffEff);
    div(phi,phiEffEffEffEffEffEffEffEffEffEffEffEffEffEffEffEffEffEffEffEffEff) bounded Gauss linearUpwind grad(phiEffEffEffEffEffEffEffEffEffEffEffEffEffEffEffEffEffEffEffEffEff);
    div(phi,phiEffEffEffEffEffEffEffEffEffEffEffEffEffEffEffEffEffEffEffEffEffEff) bounded Gauss linearUpwind grad(phiEffEffEffEffEffEffEffEffEffEffEffEffEffEffEffEffEffEffEffEffEffEff);
    div(phi,phiEffEffEffEffEffEffEffEffEffEffEffEffEffEffEffEffEffEffEffEffEffEffEff) bounded Gauss linearUpwind grad(phiEffEffEffEffEffEffEffEffEffEffEffEffEffEffEffEffEffEffEffEffEffEffEff);
    div(phi,phiEffEffEffEffEffEffEffEffEffEffEffEffEffEffEffEffEffEffEffEffEffEffEffEff) bounded Gauss linearUpwind grad(phiEffEffEffEffEffEffEffEffEffEffEffEffEffEffEffEffEffEffEffEffEffEffEffEff);
    div(phi,phiEffEffEffEffEffEffEffEffEffEffEffEffEffEffEffEffEffEffEffEffEffEffEffEffEff) bounded Gauss linearUpwind grad(phiEffEffEffEffEffEffEffEffEffEffEffEffEffEffEffEffEffEffEffEffEffEffEffEffEff);
    div(phi,phiEffEffEffEffEffEffEffEffEffEffEffEffEffEffEffEffEffEffEffEffEffEffEffEffEffEff) bounded Gauss linearUpwind grad(phiEffEffEffEffEffEffEffEffEffEffEffEffEffEffEffEffEffEffEffEffEffEffEffEffEffEff);
    div(phi,phiEffEffEffEffEffEffEffEffEffEffEffEffEffEffEffEffEffEffEffEffEffEffEffEffEffEffEff) bounded Gauss linearUpwind grad(phiEffEffEffEffEffEffEffEffEffEffEffEffEffEffEffEffEffEffEffEffEffEffEffEffEffEffEff);
    div(phi,phiEffEffEffEffEffEffEffEffEffEffEffEffEffEffEffEffEffEffEffEffEffEffEffEffEffEffEffEff) bounded Gauss linearUpwind grad(phiEffEffEffEffEffEffEffEffEffEffEffEffEffEffEffEffEffEffEffEffEffEffEffEffEffEffEffEff);
    div(phi,phiEffEffEffEffEffEffEffEffEffEffEffEffEffEffEffEffEffEffEffEffEffEffEffEffEffEffEffEffEff) bounded Gauss linearUpwind grad(phiEffEffEffEffEffEffEffEffEffEffEffEffEffEffEffEffEffEffEffEffEffEffEffEffEffEffEffEffEff);
    div(phi,phiEffEffEffEffEffEffEffEffEffEffEffEffEffEffEffEffEffEffEffEffEffEffEffEffEffEffEffEffEffEff) bounded Gauss linearUpwind grad(phiEffEffEffEffEffEffEffEffEffEffEffEffEffEffEffEffEffEffEffEffEffEffEffEffEffEffEffEffEffEff);
    div(phi,phiEffEffEffEffEffEffEffEffEffEffEffEffEffEffEffEffEffEffEffEffEffEffEffEffEffEffEffEffEffEffEff) bounded Gauss linearUpwind grad(phiEffEffEffEffEffEffEffEffEffEffEffEffEffEffEffEffEffEffEffEffEffEffEffEffEffEffEffEffEffEffEff);
    div(phi,phiEffEffEffEffEffEffEffEffEffEffEffEffEffEffEffEffEffEffEffEffEffEffEffEffEffEffEffEffEffEffEffEff) bounded Gauss linearUpwind grad(phiEffEffEffEffEffEffEffEffEffEffEffEffEffEffEffEffEffEffEffEffEffEffEffEffEffEffEffEffEffEffEffEff);
    div(phi,phiEffEffEffEffEffEffEffEffEffEffEffEffEffEffEffEffEffEffEffEffEffEffEffEffEffEffEffEffEffEffEffEffEff) bounded Gauss linearUpwind grad(phiEffEffEffEffEffEffEffEffEffEffEffEffEffEffEffEffEffEffEffEffEffEffEffEffEffEffEffEffEffEffEffEffEff);
    div(phi,phiEffEffEffEffEffEffEffEffEffEffEffEffEffEffEffEffEffEffEffEffEffEffEffEffEffEffEffEffEffEffEffEffEffEff) bounded Gauss linearUpwind grad(phiEffEffEffEffEffEffEffEffEffEffEffEffEffEffEffEffEffEffEffEffEffEffEffEffEffEffEffEffEffEffEffEffEffEff);
    div(phi,phiEffEffEffEffEffEffEffEffEffEffEffEffEffEffEffEffEffEffEffEffEffEffEffEffEffEffEffEffEffEffEffEffEffEffEff) bounded Gauss linearUpwind grad(phiEffEffEffEffEffEffEffEffEffEffEffEffEffEffEffEffEffEffEffEffEffEffEffEffEffEffEffEffEffEffEffEffEffEffEff);
    div(phi,phiEffEffEffEffEffEffEffEffEffEffEffEffEffEffEffEffEffEffEffEffEffEffEffEffEffEffEffEffEffEffEffEffEffEffEffEff) bounded Gauss linearUpwind grad(phiEffEffEffEffEffEffEffEffEffEffEffEffEffEffEffEffEffEffEffEffEffEffEffEffEffEffEffEffEffEffEffEffEffEffEffEff);
    div(phi,phiEffEffEffEffEffEffEffEffEffEffEffEffEffEffEffEffEffEffEffEffEffEffEffEffEffEffEffEffEffEffEffEffEffEffEffEffEff) bounded Gauss linearUpwind grad(phiEffEffEffEffEffEffEffEffEffEffEffEffEffEffEffEffEffEffEffEffEffEffEffEffEffEffEffEffEffEffEffEffEffEffEffEffEff);
    div(phi,phiEffEffEffEffEffEffEffEffEffEffEffEffEffEffEffEffEffEffEffEffEffEffEffEffEffEffEffEffEffEffEffEffEffEffEffEffEffEff) bounded Gauss linearUpwind grad(phiEffEffEffEffEffEffEffEffEffEffEffEffEffEffEffEffEffEffEffEffEffEffEffEffEffEffEffEffEffEffEffEffEffEffEffEffEffEff);
    div(phi,phiEffEffEffEffEffEffEffEffEffEffEffEffEffEffEffEffEffEffEffEffEffEffEffEffEffEffEffEffEffEffEffEffEffEffEffEffEffEffEff) bounded Gauss linearUpwind grad(phiEffEffEffEffEffEffEffEffEffEffEffEffEffEffEffEffEffEffEffEffEffEffEffEffEffEffEffEffEffEffEffEffEffEffEffEffEffEffEff);
    div(phi,phiEffEffEffEffEffEffEffEffEffEffEffEffEffEffEffEffEffEffEffEffEffEffEffEffEffEffEffEffEffEffEffEffEffEffEffEffEffEffEffEff) bounded Gauss linearUpwind grad(phiEffEffEffEffEffEffEffEffEffEffEffEffEffEffEffEffEffEffEffEffEffEffEffEffEffEffEffEffEffEffEffEffEffEffEffEffEffEffEffEff);
    div(phi,phiEffEffEffEffEffEffEffEffEffEffEffEffEffEffEffEffEffEffEffEffEffEffEffEffEffEffEffEffEffEffEffEffEffEffEffEffEffEffEffEffEff) bounded Gauss linearUpwind grad(phiEffEffEffEffEffEffEffEffEffEffEffEffEffEffEffEffEffEffEffEffEffEffEffEffEffEffEffEffEffEffEffEffEffEffEffEffEffEffEffEffEff);
    div(phi,phiEffEffEffEffEffEffEffEffEffEffEffEffEffEffEffEffEffEffEffEffEffEffEffEffEffEffEffEffEffEffEffEffEffEffEffEffEffEffEffEffEffEff) bounded Gauss linearUpwind grad(phiEffEffEffEffEffEffEffEffEffEffEffEffEffEffEffEffEffEffEffEffEffEffEffEffEffEffEffEffEffEffEffEffEffEffEffEffEffEffEffEffEffEff);
    div(phi,phiEffEffEffEffEffEffEffEffEffEffEffEffEffEffEffEffEffEffEffEffEffEffEffEffEffEffEffEffEffEffEffEffEffEffEffEffEffEffEffEffEffEffEff) bounded Gauss linearUpwind grad(phiEffEffEffEffEffEffEffEffEffEffEffEffEffEffEffEffEffEffEffEffEffEffEffEffEffEffEffEffEffEffEffEffEffEffEffEffEffEffEffEffEffEffEff);
    div(phi,phiEffEffEffEffEffEffEffEffEffEffEffEffEffEffEffEffEffEffEffEffEffEffEffEffEffEffEffEffEffEffEffEffEffEffEffEffEffEffEffEffEffEffEffEff) bounded Gauss linearUpwind grad(phiEffEffEffEffEffEffEffEffEffEffEffEffEffEffEffEffEffEffEffEffEffEffEffEffEffEffEffEffEffEffEffEffEffEffEffEffEffEffEffEffEffEffEffEff);
    div(phi,phiEffEffEffEffEffEffEffEffEffEffEffEffEffEffEffEffEffEffEffEffEffEffEffEffEffEffEffEffEffEffEffEffEffEffEffEffEffEffEffEffEffEffEffEffEff) bounded Gauss linearUpwind grad(phiEffEffEffEffEffEffEffEffEffEffEffEffEffEffEffEffEffEffEffEffEffEffEffEffEffEffEffEffEffEffEffEffEffEffEffEffEffEffEffEffEffEffEffEffEff);
    div(phi,phiEffEffEffEffEffEffEffEffEffEffEffEffEffEffEffEffEffEffEffEffEffEffEffEffEffEffEffEffEffEffEffEffEffEffEffEffEffEffEffEffEffEffEffEffEffEff) bounded Gauss linearUpwind grad(phiEffEffEffEffEffEffEffEffEffEffEffEffEffEffEffEffEffEffEffEffEffEffEffEffEffEffEffEffEffEffEffEffEffEffEffEffEffEffEffEffEffEffEffEffEffEff);
    div(phi,phiEffEffEffEffEffEffEffEffEffEffEffEffEffEffEffEffEffEffEffEffEffEffEffEffEffEffEffEffEffEffEffEffEffEffEffEffEffEffEffEffEffEffEffEffEffEffEff) bounded Gauss linearUpwind grad(phiEffEffEffEffEffEffEffEffEffEffEffEffEffEffEffEffEffEffEffEffEffEffEffEffEffEffEffEffEffEffEffEffEffEffEffEffEffEffEffEffEffEffEffEffEffEffEff);
    div(phi,phiEffEffEffEffEffEffEffEffEffEffEffEffEffEffEffEffEffEffEffEffEffEffEffEffEffEffEffEffEffEffEffEffEffEffEffEffEffEffEffEffEffEffEffEffEffEffEffEff) bounded Gauss linearUpwind grad(phiEffEffEffEffEffEffEffEffEffEffEffEffEffEffEffEffEffEffEffEffEffEffEffEffEffEffEffEffEffEffEffEffEffEffEffEffEffEffEffEffEffEffEffEffEffEffEffEff);
    div(phi,phiEffEffEffEffEffEffEffEffEffEffEffEffEffEffEffEffEffEffEffEffEffEffEffEffEffEffEffEffEffEffEffEffEffEffEffEffEffEffEffEffEffEffEffEffEffEffEffEffEff) bounded Gauss linearUpwind grad(phiEffEffEffEffEffEffEffEffEffEffEffEffEffEffEffEffEffEffEffEffEffEffEffEffEffEffEffEffEffEffEffEffEffEffEffEffEffEffEffEffEffEffEffEffEffEffEffEffEff);
    div(phi,phiEffEffEffEffEffEffEffEffEffEffEffEffEffEffEffEffEffEffEffEffEffEffEffEffEffEffEffEffEffEffEffEffEffEffEffEffEffEffEffEffEffEffEffEffEffEffEffEffEffEff) bounded Gauss linearUpwind grad(phiEffEffEffEffEffEffEffEffEffEffEffEffEffEffEffEffEffEffEffEffEffEffEffEffEffEffEffEffEffEffEffEffEffEffEffEffEffEffEffEffEffEffEffEffEffEffEffEffEffEff);
    div(phi,phiEffEffEffEffEffEffEffEffEffEffEffEffEffEffEffEffEffEffEffEffEffEffEffEffEffEffEffEffEffEffEffEffEffEffEffEffEffEffEffEffEffEffEffEffEffEffEffEffEffEffEff) bounded Gauss linearUpwind grad(phiEffEffEffEffEffEffEffEffEffEffEffEffEffEffEffEffEffEffEffEffEffEffEffEffEffEffEffEffEffEffEffEffEffEffEffEffEffEffEffEffEffEffEffEffEffEffEffEffEffEffEff);
    div(phi,phiEffEffEffEffEffEffEffEffEffEffEffEffEffEffEffEffEffEffEffEffEffEffEffEffEffEffEffEffEffEffEffEffEffEffEffEffEffEffEffEffEffEffEffEffEffEffEffEffEffEffEffEff) bounded Gauss linearUpwind grad(phiEffEffEffEffEffEffEffEffEffEffEffEffEffEffEffEffEffEffEffEffEffEffEffEffEffEffEffEffEffEffEffEffEffEffEffEffEffEffEffEffEffEffEffEffEffEffEffEffEffEffEffEff);
    div(phi,phiEffEffEffEffEffEffEffEffEffEffEffEffEffEffEffEffEffEffEffEffEffEffEffEffEffEffEffEffEffEffEffEffEffEffEffEffEffEffEffEffEffEffEffEffEffEffEffEffEffEffEffEffEff) bounded Gauss linearUpwind grad(phiEffEffEffEffEffEffEffEffEffEffEffEffEffEffEffEffEffEffEffEffEffEffEffEffEffEffEffEffEffEffEffEffEffEffEffEffEffEffEffEffEffEffEffEffEffEffEffEffEffEffEffEffEff);
    div(phi,phiEffEffEffEffEffEffEffEffEffEffEffEffEffEffEffEffEffEffEffEffEffEffEffEffEffEffEffEffEffEffEffEffEffEffEffEffEffEffEffEffEffEffEffEffEffEffEffEffEffEffEffEffEffEff) bounded Gauss linearUpwind grad(phiEffEffEffEffEffEffEffEffEffEffEffEffEffEffEffEffEffEffEffEffEffEffEffEffEffEffEffEffEffEffEffEffEffEffEffEffEffEffEffEffEffEffEffEffEffEffEffEffEffEffEffEffEffEff);
    div(phi,phiEffEffEffEffEffEffEffEffEffEffEffEffEffEffEffEffEffEffEffEffEffEffEffEffEffEffEffEffEffEffEffEffEffEffEffEffEffEffEffEffEffEffEffEffEffEffEffEffEffEffEffEffEffEffEff) bounded Gauss linearUpwind grad(phiEffEffEffEffEffEffEffEffEffEffEffEffEffEffEffEffEffEffEffEffEffEffEffEffEffEffEffEffEffEffEffEffEffEffEffEffEffEffEffEffEffEffEffEffEffEffEffEffEffEffEffEffEffEffEff);
    div(phi,phiEffEffEffEffEffEffEffEffEffEffEffEffEffEffEffEffEffEffEffEffEffEffEffEffEffEffEffEffEffEffEffEffEffEffEffEffEffEffEffEffEffEffEffEffEffEffEffEffEffEffEffEffEffEffEffEff) bounded Gauss linearUpwind grad(phiEffEffEffEffEffEffEffEffEffEffEffEffEffEffEffEffEffEffEffEffEffEffEffEffEffEffEffEffEffEffEffEffEffEffEffEffEffEffEffEffEffEffEffEffEffEffEffEffEffEffEffEffEffEffEffEff);
    div(phi,phiEffEffEffEffEffEffEffEffEffEffEffEffEffEffEffEffEffEffEffEffEffEffEffEffEffEffEffEffEffEffEffEffEffEffEffEffEffEffEffEffEffEffEffEffEffEffEffEffEffEffEffEffEffEffEffEffEff) bounded Gauss linearUpwind grad(phiEffEffEffEffEffEffEffEffEffEffEffEffEffEffEffEffEffEffEffEffEffEffEffEffEffEffEffEffEffEffEffEffEffEffEffEffEffEffEffEffEffEffEffEffEffEffEffEffEffEffEffEffEffEffEffEffEff);
    div(phi,phiEffEffEffEffEffEffEffEffEffEffEffEffEffEffEffEffEffEffEffEffEffEffEffEffEffEffEffEffEffEffEffEffEffEffEffEffEffEffEffEffEffEffEffEffEffEffEffEffEffEffEffEffEffEffEffEffEffEff) bounded Gauss linearUpwind grad(phiEffEffEffEffEffEffEffEffEffEffEffEffEffEffEffEffEffEffEffEffEffEffEffEffEffEffEffEffEffEffEffEffEffEffEffEffEffEffEffEffEffEffEffEffEffEffEffEffEffEffEffEffEffEffEffEffEffEff);
    div(phi,phiEffEffEffEffEffEffEffEffEffEffEffEffEffEffEffEffEffEffEffEffEffEffEffEffEffEffEffEffEffEffEffEffEffEffEffEffEffEffEffEffEffEffEffEffEffEffEffEffEffEffEffEffEffEffEffEffEffEffEff) bounded Gauss linearUpwind grad(phiEffEffEffEffEffEffEffEffEffEffEffEffEffEffEffEffEffEffEffEffEffEffEffEffEffEffEffEffEffEffEffEffEffEffEffEffEffEffEffEffEffEffEffEffEffEffEffEffEffEffEffEffEffEffEffEffEffEffEff);
    div(phi,phiEffEffEffEffEffEffEffEffEffEffEffEffEffEffEffEffEffEffEffEffEffEffEffEffEffEffEffEffEffEffEffEffEffEffEffEffEffEffEffEffEffEffEffEffEffEffEffEffEffEffEffEffEffEffEffEffEffEffEffEff) bounded Gauss linearUpwind grad(phiEffEffEffEffEffEffEffEffEffEffEffEffEffEffEffEffEffEffEffEffEffEffEffEffEffEffEffEffEffEffEffEffEffEffEffEffEffEffEffEffEffEffEffEffEffEffEffEffEffEffEffEffEffEffEffEffEffEffEffEff);
    div(phi,phiEffEffEffEffEffEffEffEffEffEffEffEffEffEffEffEffEffEffEffEffEffEffEffEffEffEffEffEffEffEffEffEffEffEffEffEffEffEffEffEffEffEffEffEffEffEffEffEffEffEffEffEffEffEffEffEffEffEffEffEffEff) bounded Gauss linearUpwind grad(phiEffEffEffEffEffEffEffEffEffEffEffEffEffEffEffEffEffEffEffEffEffEffEffEffEffEffEffEffEffEffEffEffEffEffEffEffEffEffEffEffEffEffEffEffEffEffEffEffEffEffEffEffEffEffEffEffEffEffEffEffEff);
    div(phi,phiEffEffEffEffEffEffEffEffEffEffEffEffEffEffEffEffEffEffEffEffEffEffEffEffEffEffEffEffEffEffEffEffEffEffEffEffEffEffEffEffEffEffEffEffEffEffEffEffEffEffEffEffEffEffEffEffEffEffEffEffEffEff) bounded Gauss linearUpwind grad(phiEffEffEffEffEffEffEffEffEffEffEffEffEffEffEffEffEffEffEffEffEffEffEffEffEffEffEffEffEffEffEffEffEffEffEffEffEffEffEffEffEffEffEffEffEffEffEffEffEffEffEffEffEffEffEffEffEffEffEffEffEffEff);
    div(phi,phiEffEffEffEffEffEffEffEffEffEffEffEffEffEffEffEffEffEffEffEffEffEffEffEffEffEffEffEffEffEffEffEffEffEffEffEffEffEffEffEffEffEffEffEffEffEffEffEffEffEffEffEffEffEffEffEffEffEffEffEffEffEffEff) bounded Gauss linearUpwind grad(phiEffEffEffEffEffEffEffEffEffEffEffEffEffEffEffEffEffEffEffEffEffEffEffEffEffEffEffEffEffEffEffEffEffEffEffEffEffEffEffEffEffEffEffEffEffEffEffEffEffEffEffEffEffEffEffEffEffEffEffEffEffEffEff);
    div(phi,phiEffEffEffEffEffEffEffEffEffEffEffEffEffEffEffEffEffEffEffEffEffEffEffEffEffEffEffEffEffEffEffEffEffEffEffEffEffEffEffEffEffEffEffEffEffEffEffEffEffEffEffEffEffEffEffEffEffEffEffEffEffEffEffEff) bounded Gauss linearUpwind grad(phiEffEffEffEffEffEffEffEffEffEffEffEffEffEffEffEffEffEffEffEffEffEffEffEffEffEffEffEffEffEffEffEffEffEffEffEffEffEffEffEffEffEffEffEffEffEffEffEffEffEffEffEffEffEffEffEffEffEffEffEffEffEffEffEff);
    div(phi,phiEffEffEffEffEffEffEffEffEffEffEffEffEffEffEffEffEffEffEffEffEffEffEffEffEffEffEffEffEffEffEffEffEffEffEffEffEffEffEffEffEffEffEffEffEffEffEffEffEffEffEffEffEffEffEffEffEffEffEffEffEffEffEffEffEff) bounded Gauss linearUpwind grad(phiEffEffEffEffEffEffEffEffEffEffEffEffEffEffEffEffEffEffEffEffEffEffEffEffEffEffEffEffEffEffEffEffEffEffEffEffEffEffEffEffEffEffEffEffEffEffEffEffEffEffEffEffEffEffEffEffEffEffEffEffEffEffEffEffEff);
    div(phi,phiEffEffEffEffEffEffEffEffEffEffEffEffEffEffEffEffEffEffEffEffEffEffEffEffEffEffEffEffEffEffEffEffEffEffEffEffEffEffEffEffEffEffEffEffEffEffEffEffEffEffEffEffEffEffEffEffEffEffEffEffEffEffEffEffEffEff) bounded Gauss linearUpwind grad(phiEffEffEffEffEffEffEffEffEffEffEffEffEffEffEffEffEffEffEffEffEffEffEffEffEffEffEffEffEffEffEffEffEffEffEffEffEffEffEffEffEffEffEffEffEffEffEffEffEffEffEffEffEffEffEffEffEffEffEffEffEffEffEffEffEffEff);
    div(phi,phiEffEffEffEffEffEffEffEffEffEffEffEffEffEffEffEffEffEffEffEffEffEffEffEffEffEffEffEffEffEffEffEffEffEffEffEffEffEffEffEffEffEffEffEffEffEffEffEffEffEffEffEffEffEffEffEffEffEffEffEffEffEffEffEffEffEffEff) bounded Gauss linearUpwind grad(phiEffEffEffEffEffEffEffEffEffEffEffEffEffEffEffEffEffEffEffEffEffEffEffEffEffEffEffEffEffEffEffEffEffEffEffEffEffEffEffEffEffEffEffEffEffEffEffEffEffEffEffEffEffEffEffEffEffEffEffEffEffEffEffEffEffEffEff);
    div(phi,phiEffEffEffEffEffEffEffEffEffEffEffEffEffEffEffEffEffEffEffEffEffEffEffEffEffEffEffEffEffEffEffEffEffEffEffEffEffEffEffEffEffEffEffEffEffEffEffEffEffEffEffEffEffEffEffEffEffEffEffEffEffEffEffEffEffEffEffEff) bounded Gauss linearUpwind grad(phiEffEffEffEffEffEffEffEffEffEffEffEffEffEffEffEffEffEffEffEffEffEffEffEffEffEffEffEffEffEffEffEffEffEffEffEffEffEffEffEffEffEffEffEffEffEffEffEffEffEffEffEffEffEffEffEffEffEffEffEffEffEffEffEffEffEffEffEff);
    div(phi,phiEffEffEffEffEffEffEffEffEffEffEffEffEffEffEffEffEffEffEffEffEffEffEffEffEffEffEffEffEffEffEffEffEffEffEffEffEffEffEffEffEffEffEffEffEffEffEffEffEffEffEffEffEffEffEffEffEffEffEffEffEffEffEffEffEffEffEffEffEff) bounded Gauss linearUpwind grad(phiEffEffEffEffEffEffEffEffEffEffEffEffEffEffEffEffEffEffEffEffEffEffEffEffEffEffEffEffEffEffEffEffEffEffEffEffEffEffEffEffEffEffEffEffEffEffEffEffEffEffEffEffEffEffEffEffEffEffEffEffEffEffEffEffEffEffEffEffEff);
    div(phi,phiEffEffEffEffEffEffEffEffEffEffEffEffEffEffEffEffEffEffEffEffEffEffEffEffEffEffEffEffEffEffEffEffEffEffEffEffEffEffEffEffEffEffEffEffEffEffEffEffEffEffEffEffEffEffEffEffEffEffEffEffEffEffEffEffEffEffEffEffEffEff) bounded Gauss linearUpwind grad(phiEffEffEffEffEffEffEffEffEffEffEffEffEffEffEffEffEffEffEffEffEffEffEffEffEffEffEffEffEffEffEffEffEffEffEffEffEffEffEffEffEffEffEffEffEffEffEffEffEffEffEffEffEffEffEffEffEffEffEffEffEffEffEffEffEffEffEffEffEffEff);
    div(phi,phiEffEffEffEffEffEffEffEffEffEffEffEffEffEffEffEffEffEffEffEffEffEffEffEffEffEffEffEffEffEffEffEffEffEffEffEffEffEffEffEffEffEffEffEffEffEffEffEffEffEffEffEffEffEffEffEffEffEffEffEffEffEffEffEffEffEffEffEffEffEffEff) bounded Gauss linearUpwind grad(phiEffEffEffEffEffEffEffEffEffEffEffEffEffEffEffEffEffEffEffEffEffEffEffEffEffEffEffEffEffEffEffEffEffEffEffEffEffEffEffEffEffEffEffEffEffEffEffEffEffEffEffEffEffEffEffEffEffEffEffEffEffEffEffEffEffEffEffEffEffEffEff);
    div(phi,phiEffEffEffEffEffEffEffEffEffEffEffEffEffEffEffEffEffEffEffEffEffEffEffEffEffEffEffEffEffEffEffEffEffEffEffEffEffEffEffEffEffEffEffEffEffEffEffEffEffEffEffEffEffEffEffEffEffEffEffEffEffEffEffEffEffEffEffEffEffEffEffEff) bounded Gauss linearUpwind grad(phiEffEffEffEffEffEffEffEffEffEffEffEffEffEffEffEffEffEffEffEffEffEffEffEffEffEffEffEffEffEffEffEffEffEffEffEffEffEffEffEffEffEffEffEffEffEffEffEffEffEffEffEffEffEffEffEffEffEffEffEffEffEffEffEffEffEffEffEffEffEffEffEff);
    div(phi,phiEffEffEffEffEffEffEffEffEffEffEffEffEffEffEffEffEffEffEffEffEffEffEffEffEffEffEffEffEffEffEffEffEffEffEffEffEffEffEffEffEffEffEffEffEffEffEffEffEffEffEffEffEffEffEffEffEffEffEffEffEffEffEffEffEffEffEffEffEffEffEffEffEff) bounded Gauss linearUpwind grad(phiEffEffEffEffEffEffEffEffEffEffEffEffEffEffEffEffEffEffEffEffEffEffEffEffEffEffEffEffEffEffEffEffEffEffEffEffEffEffEffEffEffEffEffEffEffEffEffEffEffEffEffEffEffEffEffEffEffEffEffEffEffEffEffEffEffEffEffEffEffEffEffEffEff);
    div(phi,phiEffEffEffEffEffEffEffEffEffEffEffEffEffEffEffEffEffEffEffEffEffEffEffEffEffEffEffEffEffEffEffEffEffEffEffEffEffEffEffEffEffEffEffEffEffEffEffEffEffEffEffEffEffEffEffEffEffEffEffEffEffEffEffEffEffEffEffEffEffEffEffEffEffEff) bounded Gauss linearUpwind grad(phiEffEffEffEffEffEffEffEffEffEffEffEffEffEffEffEffEffEffEffEffEffEffEffEffEffEffEffEffEffEffEffEffEffEffEffEffEffEffEffEffEffEffEffEffEffEffEffEffEffEffEffEffEffEffEffEffEffEffEffEffEffEffEffEffEffEffEffEffEffEffEffEffEffEff);
    div(phi,phiEffEffEffEffEffEffEffEffEffEffEffEffEffEffEffEffEffEffEffEffEffEffEffEffEffEffEffEffEffEffEffEffEffEffEffEffEffEffEffEffEffEffEffEffEffEffEffEffEffEffEffEffEffEffEffEffEffEffEffEffEffEffEffEffEffEffEffEffEffEffEffEffEffEffEff) bounded Gauss linearUpwind grad(phiEffEffEffEffEffEffEffEffEffEffEffEffEffEffEffEffEffEffEffEffEffEffEffEffEffEffEffEffEffEffEffEffEffEffEffEffEffEffEffEffEffEffEffEffEffEffEffEffEffEffEffEffEffEffEffEffEffEffEffEffEffEffEffEffEffEffEffEffEffEffEffEffEffEffEff);
    div(phi,phiEffEffEffEffEffEffEffEffEffEffEffEffEffEffEffEffEffEffEffEffEffEffEffEffEffEffEffEffEffEffEffEffEffEffEffEffEffEffEffEffEffEffEffEffEffEffEffEffEffEffEffEffEffEffEffEffEffEffEffEffEffEffEffEffEffEffEffEffEffEffEffEffEffEffEffEff) bounded Gauss linearUpwind grad(phiEffEffEffEffEffEffEffEffEffEffEffEffEffEffEffEffEffEffEffEffEffEffEffEffEffEffEffEffEffEffEffEffEffEffEffEffEffEffEffEffEffEffEffEffEffEffEffEffEffEffEffEffEffEffEffEffEffEffEffEffEffEffEffEffEffEffEffEffEffEffEffEffEffEffEffEff);
    div(phi,phiEffEffEffEffEffEffEffEffEffEffEffEffEffEffEffEffEffEffEffEffEffEffEffEffEffEffEffEffEffEffEffEffEffEffEffEffEffEffEffEffEffEffEffEffEffEffEffEffEffEffEffEffEffEffEffEffEffEffEffEffEffEffEffEffEffEffEffEffEffEffEffEffEffEffEffEffEff) bounded Gauss linearUpwind grad(phiEffEffEffEffEffEffEffEffEffEffEffEffEffEffEffEffEffEffEffEffEffEffEffEffEffEffEffEffEffEffEffEffEffEffEffEffEffEffEffEffEffEffEffEffEffEffEffEffEffEffEffEffEffEffEffEffEffEffEffEffEffEffEffEffEffEffEffEffEffEffEffEffEffEffEffEffEff);
    div(phi,phiEffEffEffEffEffEffEffEffEffEffEffEffEffEffEffEffEffEffEffEffEffEffEffEffEffEffEffEffEffEffEffEffEffEffEffEffEffEffEffEffEffEffEffEffEffEffEffEffEffEffEffEffEffEffEffEffEffEffEffEffEffEffEffEffEffEffEffEffEffEffEffEffEffEffEffEffEffEff) bounded Gauss linearUpwind grad(phiEffEffEffEffEffEffEffEffEffEffEffEffEffEffEffEffEffEffEffEffEffEffEffEffEffEffEffEffEffEffEffEffEffEffEffEffEffEffEffEffEffEffEffEffEffEffEffEffEffEffEffEffEffEffEffEffEffEffEffEffEffEffEffEffEffEffEffEffEffEffEffEffEffEffEffEffEffEff);
    div(phi,phiEffEffEffEffEffEffEffEffEffEffEffEffEffEffEffEffEffEffEffEffEffEffEffEffEffEffEffEffEffEffEffEffEffEffEffEffEffEffEffEffEffEffEffEffEffEffEffEffEffEffEffEffEffEffEffEffEffEffEffEffEffEffEffEffEffEffEffEffEffEffEffEffEffEffEffEffEffEffEff) bounded Gauss linearUpwind grad(phiEffEffEffEffEffEffEffEffEffEffEffEffEffEffEffEffEffEffEffEffEffEffEffEffEffEffEffEffEffEffEffEffEffEffEffEffEffEffEffEffEffEffEffEffEffEffEffEffEffEffEffEffEffEffEffEffEffEffEffEffEffEffEffEffEffEffEffEffEffEffEffEffEffEffEffEffEffEffEff);
    div(phi,phiEffEffEffEffEffEffEffEffEffEffEffEffEffEffEffEffEffEffEffEffEffEffEffEffEffEffEffEffEffEffEffEffEffEffEffEffEffEffEffEffEffEffEffEffEffEffEffEffEffEffEffEffEffEffEffEffEffEffEffEffEffEffEffEffEffEffEffEffEffEffEffEffEffEffEffEffEffEffEffEff) bounded Gauss linearUpwind grad(phiEffEffEffEffEffEffEffEffEffEffEffEffEffEffEffEffEffEffEffEffEffEffEffEffEffEffEffEffEffEffEffEffEffEffEffEffEffEffEffEffEffEffEffEffEffEffEffEffEffEffEffEffEffEffEffEffEffEffEffEffEffEffEffEffEffEffEffEffEffEffEffEffEffEffEffEffEffEffEffEff);
    div(phi,phiEffEffEffEffEffEffEffEffEffEffEffEffEffEffEffEffEffEffEffEffEffEffEffEffEffEffEffEffEffEffEffEffEffEffEffEffEffEffEffEffEffEffEffEffEffEffEffEffEffEffEffEffEffEffEffEffEffEffEffEffEffEffEffEffEffEffEffEffEffEffEffEffEffEffEffEffEffEffEffEffEff) bounded Gauss linearUpwind grad(phiEffEffEffEffEffEffEffEffEffEffEffEffEffEffEffEffEffEffEffEffEffEffEffEffEffEffEffEffEffEffEffEffEffEffEffEffEffEffEffEffEffEffEffEffEffEffEffEffEffEffEffEffEffEffEffEffEffEffEffEffEffEffEffEffEffEffEffEffEffEffEffEffEffEffEffEffEffEffEffEffEff);
    div(phi,phiEffEffEffEffEffEffEffEffEffEffEffEffEffEffEffEffEffEffEffEffEffEffEffEffEffEffEffEffEffEffEffEffEffEffEffEffEffEffEffEffEffEffEffEffEffEffEffEffEffEffEffEffEffEffEffEffEffEffEffEffEffEffEffEffEffEffEffEffEffEffEffEffEffEffEffEffEffEffEffEffEffEff) bounded Gauss linearUpwind grad(phiEffEffEffEffEffEffEffEffEffEffEffEffEffEffEffEffEffEffEffEffEffEffEffEffEffEffEffEffEffEffEffEffEffEffEffEffEffEffEffEffEffEffEffEffEffEffEffEffEffEffEffEffEffEffEffEffEffEffEffEffEffEffEffEffEffEffEffEffEffEffEffEffEffEffEffEffEffEffEffEffEffEff);
    div(phi,phiEffEffEffEffEffEffEffEffEffEffEffEffEffEffEffEffEffEffEffEffEffEffEffEffEffEffEffEffEffEffEffEffEffEffEffEffEffEffEffEffEffEffEffEffEffEffEffEffEffEffEffEffEffEffEffEffEffEffEffEffEffEffEffEffEffEffEffEffEffEffEffEffEffEffEffEffEffEffEffEffEffEffEff) bounded Gauss linearUpwind grad(phiEffEffEffEffEffEffEffEffEffEffEffEffEffEffEffEffEffEffEffEffEffEffEffEffEffEffEffEffEffEffEffEffEffEffEffEffEffEffEffEffEffEffEffEffEffEffEffEffEffEffEffEffEffEffEffEffEffEffEffEffEffEffEffEffEffEffEffEffEffEffEffEffEffEffEffEffEffEffEffEffEffEffEffEff);
    div(phi,phiEffEffEffEffEffEffEffEffEffEffEffEffEffEffEffEffEffEffEffEffEffEffEffEffEffEffEffEffEffEffEffEffEffEffEffEffEffEffEffEffEffEffEffEffEffEffEffEffEffEffEffEffEffEffEffEffEffEffEffEffEffEffEffEffEffEffEffEffEffEffEffEffEffEffEffEffEffEffEffEffEffEffEffEffEff) bounded Gauss linearUpwind grad(phiEffEffEffEffEffEffEffEffEffEffEffEffEffEffEffEffEffEffEffEffEffEffEffEffEffEffEffEffEffEffEffEffEffEffEffEffEffEffEffEffEffEffEffEffEffEffEffEffEffEffEffEffEffEffEffEffEffEffEffEffEffEffEffEffEffEffEffEffEffEffEffEffEffEffEffEffEffEffEffEffEffEffEffEffEffEff);
    div(phi,phiEffEffEffEffEffEffEffEffEffEffEffEffEffEffEffEffEffEffEffEffEffEffEffEffEffEffEffEffEffEffEffEffEffEffEffEffEffEffEffEffEffEffEffEffEffEffEffEffEffEffEffEffEffEffEffEffEffEffEffEffEffEffEffEffEffEffEffEffEffEffEffEffEffEffEffEffEffEffEffEffEffEffEffEffEffEffEff) bounded Gauss linearUpwind grad(phiEffEffEffEffEffEffEffEffEffEffEffEffEffEffEffEffEffEffEffEffEffEffEffEffEffEffEffEffEffEffEffEffEffEffEffEffEffEffEffEffEffEffEffEffEffEffEffEffEffEffEffEffEffEffEffEffEffEffEffEffEffEffEffEffEffEffEffEffEffEffEffEffEffEffEffEffEffEffEffEffEffEffEffEffEffEffEffEff);
    div(phi,phiEffEffEffEffEffEffEffEffEffEffEffEffEffEffEffEffEffEffEffEffEffEffEffEffEffEffEffEffEffEffEffEffEffEffEffEffEffEffEffEffEffEffEffEffEffEffEffEffEffEffEffEffEffEffEffEffEffEffEffEffEffEffEffEffEffEffEffEffEffEffEffEffEffEffEffEffEffEffEffEffEffEffEffEffEffEffEffEff) bounded Gauss linearUpwind grad(phiEffEffEffEffEffEffEffEffEffEffEffEffEffEffEffEffEffEffEffEffEffEffEffEffEffEffEffEffEffEffEffEffEffEffEffEffEffEffEffEffEffEffEffEffEffEffEffEffEffEffEffEffEffEffEffEffEffEffEffEffEffEffEffEffEffEffEffEffEffEffEffEffEffEffEffEffEffEffEffEffEffEffEffEffEffEffEffEffEff);
    div(phi,phiEffEffEffEffEffEffEffEffEffEffEffEffEffEffEffEffEffEffEffEffEffEffEffEffEffEffEffEffEffEffEffEffEffEffEffEffEffEffEffEffEffEffEffEffEffEffEffEffEffEffEffEffEffEffEffEffEffEffEffEffEffEffEffEffEffEffEffEffEffEffEffEffEffEffEffEffEffEffEffEffEffEffEffEffEffEffEffEffEff) bounded Gauss linearUpwind grad(phiEffEffEffEffEffEffEffEffEffEffEffEffEffEffEffEffEffEffEffEffEffEffEffEffEffEffEffEffEffEffEffEffEffEffEffEffEffEffEffEffEffEffEffEffEffEffEffEffEffEffEffEffEffEffEffEffEffEffEffEffEffEffEffEffEffEffEffEffEffEffEffEffEffEffEffEffEffEffEffEffEffEffEffEffEffEffEffEffEffEff);
    div(phi,phiEffEffEffEffEffEffEffEffEffEffEffEffEffEffEffEffEffEffEffEffEffEffEffEffEffEffEffEffEffEffEffEffEffEffEffEffEffEffEffEffEffEffEffEffEffEffEffEffEffEffEffEffEffEffEffEffEffEffEffEffEffEffEffEffEffEffEffEffEffEffEffEffEffEffEffEffEffEffEffEffEffEffEffEffEffEffEffEffEffEffEff) bounded Gauss linearUpwind grad(phiEffEffEffEffEffEffEffEffEffEffEffEffEffEffEffEffEffEffEffEffEffEffEffEffEffEffEffEffEffEffEffEffEffEffEffEffEffEffEffEffEffEffEffEffEffEffEffEffEffEffEffEffEffEffEffEffEffEffEffEffEffEffEffEffEffEffEffEffEffEffEffEffEffEffEffEffEffEffEffEffEffEffEffEffEffEffEffEffEffEffEffEff);
    div(phi,phiEffEffEffEffEffEffEffEffEffEffEffEffEffEffEffEffEffEffEffEffEffEffEffEffEffEffEffEffEffEffEffEffEffEffEffEffEffEffEffEffEffEffEffEffEffEffEffEffEffEffEffEffEffEffEffEffEffEffEffEffEffEffEffEffEffEffEffEffEffEffEffEffEffEffEffEffEffEffEffEffEffEffEffEffEffEffEffEffEffEffEffEffEff) bounded Gauss linearUpwind grad(phiEffEffEffEffEffEffEffEffEffEffEffEffEffEffEffEffEffEffEffEffEffEffEffEffEffEffEffEffEffEffEffEffEffEffEffEffEffEffEffEffEffEffEffEffEffEffEffEffEffEffEffEffEffEffEffEffEffEffEffEffEffEffEffEffEffEffEffEffEffEffEffEffEffEffEffEffEffEffEffEffEffEffEffEffEffEffEffEffEffEffEffEffEffEff);