/*--------------------------------*- C++ -*----------------------------------*\
  =========                 |
  \\      /  F ield         | OpenFOAM: The Open Source CFD Toolbox
   \\    /   O peration     | Website:  https://openfoam.org
    \\  /    A nd           | Version:  10
     \\/     M anipulation  |
\*---------------------------------------------------------------------------*/
FoamFile
{
    format      ascii;
    class       polyBoundaryMesh;
    location    "constant/polyMesh";
    object      boundary;
}
// * * * * * * * * * * * * * * * * * * * * * * * * * * * * * * * * * * * * * //

2
(
    frontAndBack
    {
        type            patch;
        nFaces          2048;
        startFace       95232;
    }
    walls
    {
        type            wall;
        inGroups        List<word> 1(wall);
        nFaces          4096;
        startFace       97280;
    }
)

// ************************************************************************* //
