FoamFile
{
    version     2.0;
    format      ascii;
    class       dictionary;
    object      blockMeshDict;
}
// * * * * * * * * * * * * * * * * * * * * * * * * * * * * * * * * * * * * * //

convertToMeters 0.001;

vertices
(
    (0 0 0)        // 0
    (100 0 0)      // 1
    (100 10 0)     // 2
    (0 10 0)       // 3
    (20 0 0)       // 4
    (20 5 0)       // 5
    (50 5 0)       // 6
    (50 10 0)      // 7
    (80 0 0)       // 8
    (80 10 0)      // 9
    (100 5 0)      // 10
    (100 10 0)     // 11 (duplicate of 2, but needed for connectivity if using 12 vertices)
    // Correcting vertices for standard pitzDaily (step down at x=20, height 5mm)
    // 0: (0,0,0)
    // 1: (100,0,0)
    // 2: (100,10,0)
    // 3: (0,10,0)
    // 4: (20,0,0)
    // 5: (20,5,0)
    // 6: (50,5,0)
    // 7: (50,10,0)
    // 8: (80,0,0)
    // 9: (80,10,0)
    // 10: (100,5,0)
    // 11: (100,10,0) -> This is actually vertex 2 in a 12-vertex setup, but let's stick to 12 vertices for clarity
    // Re-defining with 12 vertices for pitzDaily
    (0 0 0)        // 0
    (100 0 0)      // 1
    (100 10 0)     // 2
    (0 10 0)       // 3
    (20 0 0)       // 4
    (20 5 0)       // 5
    (50 5 0)       // 6
    (50 10 0)      // 7
    (80 0 0)       // 8
    (80 10 0)      // 9
    (100 5 0)      // 10
    (100 10 0)     // 11
);

blocks
(
    // Upstream block (0 to 20mm)
    hex (0 4 5 3) (20 1 1) simpleGrading (1 1 1)
    // Expansion block (20 to 50mm)
    hex (4 1 10 5) (20 1 1) simpleGrading (1 1 1)
    // Downstream block (50 to 80mm)
    hex (1 8 9 10) (20 1 1) simpleGrading (1 1 1)
    // Top block (50 to 100mm)
    hex (5 10 11 7) (20 1 1) simpleGrading (1 1 1)
    // Top upstream block (0 to 20mm)
    hex (3 5 6 2) (20 1 1) simpleGrading (1 1 1)
    // Top middle block (20 to 50mm)
    hex (5 6 7 10) (20 1 1) simpleGrading (1 1 1)
    // Top downstream block (50 to 80mm)
    hex (6 7 9 8) (20 1 1) simpleGrading (1 1 1)
    // Top far downstream block (80 to 100mm)
    hex (7 9 2 11) (20 1 1) simpleGrading (1 1 1)
);

edges
(
);

boundary
(
    inlet
    {
        type patch;
        faces
        (
            (0 3 5 4)
        );
    }
    outlet
    {
        type patch;
        faces
        (
            (1 11 10 8)
        );
    }
    walls
    {
        type wall;
        faces
        (
            (0 1 10 4)
            (1 8 9 10)
            (2 3 5 6)
            (3 6 7 2)
            (4 5 10 1)
            (5 6 7 10)
            (6 7 9 8)
            (7 9 2 11)
        );
    }
    frontAndBack
    {
        type empty;
        faces
        (
            (0 1 10 4)
            (1 8 9 10)
            (2 3 5 6)
            (3 6 7 2)
            (4 5 10 1)
            (5 6 7 10)
            (6 7 9 8)
            (7 9 2 11)
        );
    }
);

mergePatchPairs
(
);

// ************************************************************************* //