FoamFile
{
    format      ascii;
    class       dictionary;
    object      blockMeshDict;
}

convertToMeters 1;

vertices
(
    (-50 25 25)  // 0
    (-50 25 -25) // 1
    (-50 -75 25) // 2
    (-50 -75 -25) // 3
    (-500 25 25) // 4
    (-500 25 -25) // 5
    (-500 -75 25) // 6
    (-500 -75 -25) // 7
    (25 0 25) // 8
    (25 0 -25) // 9
);

blocks
(
    hex (0 1 2 3 4 5 6 7) (20 20 1) simpleGrading (1 1 1)
    hex (8 9 1 0 4 5 7 6) (20 20 1) simpleGrading (1 1 1)
);

edges
(
);

boundary
(
    inlet
    {
        type patch;
        faces
        (
            (0 1 3 2)
            (8 0 1 9)
        );
    }

    outlet
    {
        type patch;
        faces
        (
            (4 5 7 6)
            (8 9 5 4)
        );
    }

    defaultFaces
    {
        type wall;
    }
);

mergePatchPairs
(
);