FoamFile
{
    version     2.0;
    format      ascii;
    class       dictionary;
    object      blockMeshDict;
}
// * * * * * * * * * * * * * * * * * * * * * * * * * * * * * * * * * * * * * //

convertToMeters 1;

vertices
(
    (0 0 0)
    (0.02 0 0)
    (0.02 0.02 0)
    (0 0.02 0)
    (0 0 0.02)
    (0.02 0 0.02)
    (0.02 0.02 0.02)
    (0 0.02 0.02)
);

blocks
(
    hex (0 1 2 3 4 5 6 7) (50 50 1) simpleGrading (1 1 1)
);

edges
();

boundary
(
    inletFuel
    {
        type patch;
        faces ((0 1 2 3));
    }
    inletAir
    {
        type patch;
        faces ((4 5 6 7));
    }
    outlet
    {
        type patch;
        faces ((0 3 7 4));
    }
    frontAndBack
    {
        type empty;
        faces ((1 2 6 5));
    }
);

mergePatchPairs
();

// ************************************************************************* //