FoamFile
{
    version     2.0;
    format      ascii;
    class       dictionary;
    object      fvSchemes;
}
// * * * * * * * * * * * * * * * * * * * * * * * * * * * * * * * * * * * * * //

ddtSchemes
{
    default         Euler;
}

gradSchemes
{
    default         Gauss linear;
    grad(p)         Gauss linear;
    grad(T)         Gauss linear;
    grad(U)         Gauss linear;
    grad(rho)       Gauss linear;
}

divSchemes
{
    default         Gauss linear;
    div(phi,U)      Gauss linearUpwind grad(U);
    div(phi,T)      Gauss linearUpwind grad(T);
    div(phi,rho)    Gauss linearUpwind grad(rho);
    div(phi,Yi)     Gauss linearUpwind grad(Yi);
    div((muEff*dev2(T(grad(U))))) Gauss linear;
}

laplacianSchemes
{
    default         Gauss linear corrected;
}

interpolationSchemes
{
    default         linear;
}

snGradSchemes
{
    default         corrected;
}

fluxRequired
{
    default         no;
    p               phi;
    rho             phi;
    U               phi;
    T               phi;
    Y               phi;
}

// ************************************************************************* //