FoamFile
{
    version     2.0;
    format      ascii;
    class       dictionary;
    object      fvSolution;
}

// * * * * * * * * * * * * * * * * * * * * * * * * * * * * * * * * * * * * * //

solvers
{
    p
    {
        solver          PCG;
        preconditioner  DIC;
        tolerance       1e-06;
        relTol          0.1;
    }

    pFinal
    {
        $p;
        tolerance       1e-08;
        relTol          0;
    }

    U
    {
        solver          smoothSolver;
        smoother        GaussSeidel;
        tolerance       1e-06;
        relTol          0.1;
    }

    UFinal
    {
        $U;
        tolerance       1e-08;
        relTol          0;
    }

    T
    {
        solver          smoothSolver;
        smoother        GaussSeidel;
        tolerance       1e-06;
        relTol          0.1;
    }

    TFinal
    {
        $T;
        tolerance       1e-08;
        relTol          0;
    }

    "(e|psi)"
    {
        solver          smoothSolver;
        smoother        GaussSeidel;
        tolerance       1e-06;
        relTol          0.1;
    }

    "(e|psi)Final"
    {
        $"(e|psi)";
        tolerance       1e-08;
        relTol          0;
    }
}

SIMPLE
{
    nNonOrthogonalCorrectors 0;
    consistent          yes;
}

PIMPLE
{
    nOuterCorrectors 1;
    nCorrectors     2;
    nNonOrthogonalCorrectors 0;
    consistent      yes;
    momentumPredictor yes;
    transonic       no;
}

relaxationFactors
{
    equations
    {
        U               0.9;
        T               0.9;
        "(e|psi)"       0.9;
        p               0.3;
    }
}

residualControl
{
    p               1e-4;
    U               1e-4;
    T               1e-4;
    "(e|psi)"       1e-4;
}

// * * * * * * * * * * * * * * * * * * * * * * * * * * * * * * * * * * * * * //