FoamFile
{
    version     2.0;
    format      ascii;
    class       dictionary;
    object      controlDict;
}
// * * * * * * * * * * * * * * * * * * * * * * * * * * * * * * * * * * * * * //

application     shallowWaterFoam;

startFrom       startTime;

startTime       0;

stopAt          endTime;

endTime         100;

deltaT          0.1;

writeControl    runTime;

writeInterval   1;

purgeWrite      0;

writeFormat     ascii;

writePrecision  6;

timePrecision   6;

runTimeModifiable true;

adjustTimeStep  no;

maxCo           1;

// ************************************************************************* //