FoamFile
{
    version     2.0;
    format      ascii;
    class       dictionary;
    object      setFieldsDict;
}
// * * * * * * * * * * * * * * * * * * * * * * * * * * * * * * * * * * * * * //

defaultFieldValues
(
    volScalarFieldValue h 0.03
    volVectorFieldValue hU (0.001 0 0)
);

regions
(
    boxToCell
    {
        box (0.4 0.4 -1) (0.6 0.6 1);
        fieldValues
        (
            volScalarFieldValue h 0.05
            volVectorFieldValue hU (0.001 0 0)
        );
    }
);

// ************************************************************************* //