FoamFile
{
    version     2.0;
    format      ascii;
    class       dictionary;
    object      blockMeshDict;
}

scale 1;

vertices
(
    (0     0     0    )
    (0.1   0     0    )
    (0.1   0.1   0    )
    (0     0.1   0    )
    (0     0     0.01 )
    (0.1   0     0.01 )
    (0.1   0.1   0.01 )
    (0     0.1   0.01 )
);

blocks
(
    hex (0 1 2 3 4 5 6 7) (20 20 1) simpleGrading (1 1 1)
);

edges
(
);

boundary
(
    bottomWall
    {
        type wall;
        faces
        (
            (0 1 5 4)
        );
    }
    rightWall
    {
        type wall;
        faces
        (
            (1 2 6 5)
        );
    }
    movingWall
    {
        type wall;
        faces
        (
            (2 3 7 6)
        );
    }
    leftWall
    {
        type wall;
        faces
        (
            (3 0 4 7)
        );
    }
    frontAndBack
    {
        type empty;
        faces
        (
            (0 1 2 3)
            (4 5 6 7)
        );
    }
);

mergePatchPairs
(
);