FoamFile
{
    version     2.0;
    format      ascii;
    class       dictionary;
    object      fvSolution;
}

solvers
{
    p
    {
        solver          GAMG;
        tolerance       1e-06;
        relTol          0.01;
        smoother        GaussSeidel;
        cacheAgglomeration on;
        agglomerator    faceAreaPair;
        nCellsInCoarsestLevel 10;
        nPreSweeps      0;
        nPostSweeps     2;
        nFinestSweeps   2;
    }

    "(U|U0|U1)"
    {
        solver          smoothSolver;
        smoother        symGaussSeidel;
        tolerance       1e-05;
        relTol          0.1;
    }

    "(k|omega|epsilon)"
    {
        solver          smoothSolver;
        smoother        symGaussSeidel;
        tolerance       1e-05;
        relTol          0.1;
    }
}

SIMPLE
{
    nNonOrthogonalCorrectors 0;
}

PISO
{
    nCorrectors         2;
    nNonOrthogonalCorrectors 0;
    pRefCell            0;
    pRefValue           0;
}

relaxationFactors
{
    fields
    {
        p               0.3;
    }
    equations
    {
        U               1;
    }
}