FoamFile
{
    format      ascii;
    class       dictionary;
    location    "constant";
    object      thermo.CO2;
}

species
(
    CO2
);

thermo
{
    type            hConst;
    molecule        CO2;
    Hf              -393522.0;
    Cp              37.11;
}