FoamFile
{
    format      ascii;
    class       dictionary;
    location    "constant";
    object      thermo.CH4;
}

species
(
    CH4
);

thermo
{
    type            hConst;
    molecule        CH4;
    Hf              -74873.0;
    Cp              35.31;
}