FoamFile
{
    format      ascii;
    class       dictionary;
    location    "constant";
    object      thermo.N2;
}

species
(
    N2
);

thermo
{
    type            hConst;
    molecule        N2;
    Hf              0.0;
    Cp              29.1;
}
