FoamFile
{
    format      ascii;
    class       dictionary;
    location    "constant";
    object      thermo.H2O;
}

species
(
    H2O
);

thermo
{
    type            hConst;
    molecule        H2O;
    Hf              -241826.0;
    Cp              33.46;
}