FoamFile
{
    format      ascii;
    class       dictionary;
    location    "constant";
    object      thermo.O2;
}

species
(
    O2
);

thermo
{
    type            hConst;
    molecule        O2;
    Hf              0.0;
    Cp              29.37;
}