FoamFile
{
    format      ascii;
    class       volScalarField;
    object      initialConditions;
}


dimensions      [0 0 0 0 0 0 0];

internalField   uniform 0;

boundaryField
{
    defaultFaces
    {
        type            zeroGradient;
    }
}