/*--------------------------------*- C++ -*----------------------------------*\
  =========                 |
  \\      /  F ield         | OpenFOAM: The Open Source CFD Toolbox
   \\    /   O peration     | Website:  https://openfoam.org
    \\  /    A nd           | Version:  10
     \\/     M anipulation  |
\*---------------------------------------------------------------------------*/
FoamFile
{
    format      ascii;
    class       polyBoundaryMesh;
    location    "constant/polyMesh";
    object      boundary;
}
// * * * * * * * * * * * * * * * * * * * * * * * * * * * * * * * * * * * * * //

6
(
    hotWall
    {
        type            patch;
        nFaces          32;
        startFace       2992;
    }
    coldWall
    {
        type            patch;
        nFaces          32;
        startFace       3024;
    }
    topWall
    {
        type            patch;
        nFaces          144;
        startFace       3056;
    }
    bottomWall
    {
        type            patch;
        nFaces          144;
        startFace       3200;
    }
    frontWall
    {
        type            patch;
        nFaces          288;
        startFace       3344;
    }
    backWall
    {
        type            patch;
        nFaces          288;
        startFace       3632;
    }
)

// ************************************************************************* //
