FoamFile
{
    version     2.0;
    format      ascii;
    class       dictionary;
    object      transportProperties;
}

// * * * * * * * * * * * * * * * * * * * * * * * * * * * * * * * * * * * * * //

mu              0;
Pr              1.0;
Cp              2.5;
molWeight       11640.3;

// * * * * * * * * * * * * * * * * * * * * * * * * * * * * * * * * * * * * * //