FoamFile
{
    format      ascii;
    class       volScalarField;
    location    "0";
    object      epsilon;
}


dimensions      [0 2 -3 0 0 0 0];

internalField   uniform 0.01;

boundaryField
{
    inlet
    {
        type            fixedValue;
        value           $internalField;
    }
    outlet
    {
        type            zeroGradient;
    }
    walls
    {
        type            epsilonWallFunction;
        value           $internalField;
    }
}