FoamFile
{
    format      ascii;
    class       volScalarField;
    object      alpha.water;
}


dimensions      [0 0 0 0 0];

internalField   uniform 0;

boundaryField
{
    defaultFaces
    {
        type            empty;
    }

    frontAndBack
    {
        type            zeroGradient;
    }

    obstacles
    {
        type            zeroGradient;
    }
}