FoamFile
{
    format      ascii;
    class       volScalarField;
    object      p;
}

dimensions      [1 -1 -2 0 0 0 0];

internalField   uniform 1000;

boundaryField
{
    inlet
    {
        type            fixedValue;
        value           uniform 1000;
    }

    outlet
    {
        type            zeroGradient;
    }

    top
    {
        type            zeroGradient;
    }

    bottom
    {
        type            zeroGradient;
    }
}