FoamFile
{
    format      ascii;
    class       volScalarField;
    location    "0";
    object      T;
}


dimensions      [0 0 0 1 0 0 0];

internalField   uniform 300;

boundaryField
{
    fuel
    {
        type            fixedValue;
        value           uniform 1950;
    }
    air
    {
        type            fixedValue;
        value           uniform 1950;
    }
    frontAndBack
    {
        type            empty;
    }
}