/*--------------------------------*- C++ -*----------------------------------*\
| =========                 |
| \\      /  F ield         | OpenFOAM: The Open Source CFD Toolbox
|  \\    /   O peration     | Website:  https://openfoam.org
|   \\  /    A nd           | Version:  10
|    \\/     M anipulation  |
\*---------------------------------------------------------------------------*/
FoamFile
{
    format      ascii;
    class       volScalarField;
    object      nuTilda;
}
// * * * * * * * * * * * * * * * * * * * * * * * * * * * * * * * * * * * * * //

dimensions      [0 2 -1 0 0 0 0];

internalField   uniform 1e-5;

boundaryField
{
    inlet
    {
        type            fixedValue;
        value           uniform 1e-5;
    }

    outlet
    {
        type            fixedValue;
        value           uniform 1e-5;
    }

    bottom
    {
        type            symmetryPlane;
    }

    top
    {
        type            symmetryPlane;
    }

    obstacle
    {
        type            fixedValue;
        value           uniform 0;    // No-slip condition at walls
    }

    defaultFaces
    {
        type            empty;
    }
}

// ************************************************************************* //

