FoamFile
{
    version     2.0;
    format      ascii;
    class       dictionary;
    object      thermophysicalProperties;
}

thermoType
{
    type            heRhoThermo;
    mixture         pureMixture;
    transport       const;
    thermo          hConst;
    equationOfState perfectGas;
    specie          specie;
    energy          sensibleEnthalpy;
}

mixture
{
    specie
    {
        nMoles          1;
        molWeight       28.97;
    }

    thermodynamics
    {
        Cp              1005.0;
        Hf              0.0;
    }

    transport
    {
        mu              2e-05;
        Pr              1.0;
    }

    equationOfState
    {
        p0              101325;
    }
}