FoamFile
{
    version     2.0;
    format      ascii;
    class       volScalarField;
    object      p;
}
// * * * * * * * * * * * * * * * * * * * * * * * * * * * * * * * * * * * * * //

dimensions      [1 -1 -2 0 0 0 0];

internalField   uniform 101325.0;

boundaryField
{
    inlet
    {
        type            fixedValue;
        value           uniform 101325.0;
    }

    outlet
    {
        type            zeroGradient;
    }

    obstacle
    {
        type            slip;
    }

    frontAndBack
    {
        type            empty;
    }
}

// ************************************************************************* //