FoamFile
{
    version     2.0;
    format      ascii;
    class       volScalarField;
    object      T;
}
// * * * * * * * * * * * * * * * * * * * * * * * * * * * * * * * * * * * * * //

dimensions      [0 0 0 1 0 0 0];

internalField   uniform 1.0;

boundaryField
{
    inlet
    {
        type            fixedValue;
        value           uniform 1.0;
    }

    outlet
    {
        type            zeroGradient;
    }

    obstacle
    {
        type            slip;
    }

    frontAndBack
    {
        type            empty;
    }
}

// ************************************************************************* //