FoamFile
{
    format      ascii;
    class       dictionary;
    location    "constant";
    object      momentumTransport;
}


simulationType  laminar;

viscosityModel  constant;

laminar
{
    model           generalisedNewtonian;

    generalizedNewtonianCoeffs
    {
        model           CrossPowerLaw;

        CrossPowerLawCoeffs
        {
            nuInf       10;
            m           0.4;
            n           3;
        }
    }
}