FoamFile
{
    version     2.0;
    format      ascii;
    class       dictionary;
    object      topoSetDict;
}

// * * * * * * * * * * * * * * * * * * * * * * * * * * * * * * * * * * * * * //

actions
(
    {
        name            obstacle;
        type            cellZoneSet;
        action          new;
        source          boxToCell;
        sourceInfo
        {
            box           (0.4 0.4 0.4) (0.6 0.6 0.6);
        }
    }
);