FoamFile
{
    format      ascii;
    class       volScalarField;
    location    "0";
    object      p;
}


dimensions      [1 -1 -2 0 0 0 0];

internalField   uniform 1;

boundaryField
{
    inlet
    {
        type            zeroGradient;
    }

    outlet
    {
        type            fixedValue;
        value           uniform 1;
    }

    obstacle
    {
        type            zeroGradient;
    }

    frontAndBack
    {
        type            empty;
    }
}