FoamFile
{
    format      ascii;
    class       volScalarField;
    object      p;
}


dimensions      [1 -1 -2 0 0 0 0];

internalField   uniform 1;

boundaryField
{
    inlet
    {
        type            fixedValue;
        value           $internalField;
    }

    outlet
    {
        type            zeroGradient;
    }

    wedge
    {
        type            slip;
    }
}