FoamFile
{
    format      ascii;
    class       dictionary;
    location    "system";
    object      blockMeshDict;
}

convertToMeters 1;

vertices
(
    (0 0 0)
    (1 0 0)
    (1 0.1 0)
    (0 0.1 0)
    (0 0.1 0.1)
    (1 0.1 0.1)
    (1 0.2 0.1)
    (0 0.2 0.1)
);

blocks
(
    hex (0 1 2 3 4 5 6 7) (20 10 1) simpleGrading (1 1 1)
);

edges
(
);

boundary
(
    inlet
    {
        type patch;
        faces
        (
            (0 3 7 4)
        );
    }

    outlet
    {
        type patch;
        faces
        (
            (1 2 6 5)
        );
    }

    obstacle
    {
        type wall;
        faces
        (
            (3 2 6 7)
        );
    }

    defaultFaces
    {
        type empty;
        faces
        (
        );
    }
);

mergePatchPairs
(
);