FoamFile
{
    format      ascii;
    class       dictionary;
    location    "system";
    object      setFieldsDict;
}

sets ();

regions
(
    boxToCell
    {
        box (0 0 0) (1 0.2 0.1);
        fields
        (
            p
            {
                uniform 1;
            }

            T
            {
                uniform 1;
            }

            U
            {
                uniform (1.1 0 0);
            }
        );
    }
);