FoamFile
{
    version     2.0;
    format      ascii;
    class       dictionary;
    object      physicalProperties;
}
// * * * * * * * * * * * * * * * * * * * * * * * * * * * * * * * * * * * * * //

rhoInf          1.0;
psi             0.0;
mu              1e-06;
gamma           1.4;
Cp              1000.0;
Pr              0.7;
T0              1.0;
p0              101325.0;

// ************************************************************************* //