FoamFile
{
    version     2.0;
    format      ascii;
    class       dictionary;
    object      transportProperties;
}

// Bernard Cell 3D Simulation - Transport Properties
// Solver: buoyantFoam
// Domain: 9 m (X) x 1 m (Y) x 2 m (Z)
// Hot wall at x=0 (305 K), Cold wall at x=9 (300 K)

// ============================================================================
// KINEMATIC VISCOSITY (nu)
// Air at 300 K: nu = 1.5e-5 m²/s
// ============================================================================
nu              1.5e-05;

// ============================================================================
// THERMAL EXPANSION COEFFICIENT (beta)
// For ideal gas: beta = 1/T_ref = 1/300 ≈ 0.00333 K⁻¹
// ============================================================================
beta            0.00333333;

// ============================================================================
// BOUSSINESQ APPROXIMATION
// Enables density variation with temperature for buoyancy calculations
// ============================================================================
boussinesq      yes;
