FoamFile
{
    format      ascii;
    class       dictionary;
    location    "system";
    object      fvSchemes;
}


ddtSchemes
{
    default         Euler;
}

gradSchemes
{
    default         Gauss linear;
}

divSchemes
{
    default             none;

    div(phi,U)          Gauss upwind;
    div(phid,p)         Gauss upwind;
    div(phi,e)          Gauss upwind;
    div(phi,K)          Gauss upwind;
    div(phi,rho)        Gauss upwind;
    div(phi,k)          Gauss upwind;
    div(phi,epsilon)    Gauss upwind;
    div(phi,R)          Gauss linear;
    div(R)              Gauss linear;
    div(phi,nuTilda)    Gauss upwind;
    div(((rho*nuEff)*dev2(T(grad(U))))) Gauss linear;
    div(phi,K)          Gauss linear;
}

laplacianSchemes
{
    default         Gauss linear orthogonal;
}

interpolationSchemes
{
    default         linear;
}

snGradSchemes
{
    default         orthogonal;
}