/*--------------------------------*- C++ -*----------------------------------*\
  =========                 |
  \\      /  F ield         | OpenFOAM: The Open Source CFD Toolbox
   \\    /   O peration     | Website:  https://openfoam.org
    \\  /    A nd           | Version:  10
     \\/     M anipulation  |
\*---------------------------------------------------------------------------*/
FoamFile
{
    format      ascii;
    class       polyBoundaryMesh;
    location    "constant/polyMesh";
    object      boundary;
}
// * * * * * * * * * * * * * * * * * * * * * * * * * * * * * * * * * * * * * //

5
(
    inlet
    {
        type            patch;
        nFaces          5;
        startFace       175;
    }
    outlet
    {
        type            patch;
        nFaces          5;
        startFace       180;
    }
    top
    {
        type            patch;
        nFaces          20;
        startFace       185;
    }
    bottom
    {
        type            patch;
        nFaces          20;
        startFace       205;
    }
    defaultFaces
    {
        type            empty;
        inGroups        List<word> 1(empty);
        nFaces          200;
        startFace       225;
    }
)

// ************************************************************************* //
