FoamFile
{
    format      ascii;
    class       dictionary;
    location    "constant";
    object      physicalProperties;
}


thermoType
{
    type            hePsiThermo;
    mixture         pureMixture;
    transport       const;
    thermo          hConst;
    equationOfState perfectGas;
    specie          specie;
    energy          sensibleEnthalpy;
}

mixture
{
    specie
    {
        molWeight   18;
    }
    thermodynamics
    {
        Cp          1000;
        Hf          0;
    }
    transport
    {
        mu          1e-06;
        Pr          1;
    }
}