FoamFile
{
    format      ascii;
    class       volScalarField;
    object      T;
}

dimensions      [0 0 0 1 0 0 0];

internalField   uniform 300;

boundaryField
{
    walls
    {
        type            fixedValue;
        value           uniform 310;
    }

    inlet
    {
        type            fixedValue;
        value           uniform 310;
    }

    outlet
    {
        type            zeroGradient;
    }

    frontAndBack
    {
        type            zeroGradient;
    }
}