FoamFile
{
    version     2.0;
    format      ascii;
    class       dictionary;
    object      transportProperties;
}
// * * * * * * * * * * * * * * * * * * * * * * * * * * * * * * * * * * * * * //

nu              nu [ 0 2 -1 0 0 0 0 ] 1.48e-5;
rho             rho [ 1 -3 0 0 0 0 0 ] 1.0;

// ************************************************************************* //