FoamFile
{
    version     2.0;
    format      ascii;
    class       dictionary;
    object      blockMeshDict;
}

// * * * * * * * * * * * * * * * * * * * * * * * * * * * * * * * * * * * * * //

scale   1;

// Geometry definition
// x: -0.15242 to 0.3048 (Length: 0.45722 m)
// y: 0 to 0.1524 (Height: 0.1524 m)
// z: -0.005 to 0.005 (Thickness: 0.01 m)

vertices
(
    (-0.15242  0  -0.005)   // 0: Inlet Bottom
    ( 0.3048   0  -0.005)   // 1: Outlet Bottom
    ( 0.3048   0.1524 -0.005) // 2: Outlet Top
    (-0.15242  0.1524 -0.005) // 3: Inlet Top
    (-0.15242  0   0.005)   // 4: Inlet Bottom (Z+)
    ( 0.3048   0   0.005)   // 5: Outlet Bottom (Z+)
    ( 0.3048   0.1524 0.005) // 6: Outlet Top (Z+)
    (-0.15242  0.1524 0.005) // 7: Inlet Top (Z+)
);

blocks
(
    hex (0 1 2 3 4 5 6 7) (100 50 1) simpleGrading (1 1 1)
);

edges
(
);

boundary
(
    inlet
    {
        type patch;
        faces
        (
            (0 3 7 4)
        );
    }
    outlet
    {
        type patch;
        faces
        (
            (1 5 6 2)
        );
    }
    topWall
    {
        type patch;
        faces
        (
            (3 2 6 7)
        );
    }
    bottomWall
    {
        type wedge; // Wedge boundary for 2D simulation
        faces
        (
            (0 1 5 4)
        );
    }
    frontAndBack
    {
        type wedge; // Wedge boundaries for 2D simulation
        faces
        (
            (0 1 2 3)
            (4 5 6 7)
        );
    }
);

mergePatchPairs
(
);