FoamFile
{
    version     2.0;
    format      ascii;
    class       dictionary;
    object      fvSchemes;
}

// * * * * * * * * * * * * * * * * * * * * * * * * * * * * * * * * * * * * * //

ddtSchemes
{
    default         Euler;
}

gradSchemes
{
    default         Gauss linear;
    grad(p)         Gauss linear;
    grad(U)         Gauss linear;
}

divSchemes
{
    default         none;
    div(phi,U)      Gauss linearUpwind grad(U);
    div(phi,k)      Gauss limitedLinear 1;
    div(phi,omega)  Gauss limitedLinear 1;
    div(phi,epsilon) Gauss limitedLinear 1;
    div(phi,mut)    Gauss linear;
    div(phi,R)      Gauss linear;
    div((nuEff*dev2(T(grad(U))))) Gauss linear;
    div(phi,epsilon) Gauss limitedLinear 1;
    div(phi,R)      Gauss limitedLinear 1;
    div(phi,mut)    Gauss linear;
    div(phi,T)      Gauss linearUpwind grad(T);
    div(phi,pij)    Gauss linearUpwind grad(pi);
    div(phi,pij)    Gauss linearUpwind grad(pi);
    div(phi,pij)    Gauss linearUpwind grad(pi);
    div(phi,pij)    Gauss linearUpwind grad(pi);
    div(phi,pij)    Gauss linearUpwind grad(pi);
    div(phi,pij)    Gauss linearUpwind grad(pi);
    div(phi,pij)    Gauss linearUpwind grad(pi);
    div(phi,pij)    Gauss linearUpwind grad(pi);
    div(phi,pij)    Gauss linearUpwind grad(pi);
    div(phi,pij)    Gauss linearUpwind grad(pi);
    div(phi,pij)    Gauss linearUpwind grad(pi);
    div(phi,pij)    Gauss linearUpwind grad(pi);
    div(phi,pij)    Gauss linearUpwind grad(pi);
    div(phi,pij)    Gauss linearUpwind grad(pi);
    div(phi,pij)    Gauss linearUpwind grad(pi);
    div(phi,pij)    Gauss linearUpwind grad(pi);
    div(phi,pij)    Gauss linearUpwind grad(pi);
    div(phi,pij)    Gauss linearUpwind grad(pi);
    div(phi,pij)    Gauss linearUpwind grad(pi);
    div(phi,pij)    Gauss linearUpwind grad(pi);
    div(phi,pij)    Gauss linearUpwind grad(pi);
    div(phi,pij)    Gauss linearUpwind grad(pi);
    div(phi,pij)    Gauss linearUpwind grad(pi);
    div(phi,pij)    Gauss linearUpwind grad(pi);
    div(phi,pij)    Gauss linearUpwind grad(pi);
    div(phi,pij)    Gauss linearUpwind grad(pi);
    div(phi,pij)    Gauss linearUpwind grad(pi);
    div(phi,pij)    Gauss linearUpwind grad(pi);
    div(phi,pij)    Gauss linearUpwind grad(pi);
    div(phi,pij)    Gauss linearUpwind grad(pi);
    div(phi,pij)    Gauss linearUpwind grad(pi);
    div(phi,pij)    Gauss linearUpwind grad(pi);
    div(phi,pij)    Gauss linearUpwind grad(pi);
    div(phi,pij)    Gauss linearUpwind grad(pi);
    div(phi,pij)    Gauss linearUpwind grad(pi);
    div(phi,pij)    Gauss linearUpwind grad(pi);
    div(phi,pij)    Gauss linearUpwind grad(pi);
    div(phi,pij)    Gauss linearUpwind grad(pi);
    div(phi,pij)    Gauss linearUpwind grad(pi);
    div(phi,pij)    Gauss linearUpwind grad(pi);
    div(phi,pij)    Gauss linearUpwind grad(pi);
    div(phi,pij)    Gauss linearUpwind grad(pi);
    div(phi,pij)    Gauss linearUpwind grad(pi);
    div(phi,pij)    Gauss linearUpwind grad(pi);
    div(phi,pij)    Gauss linearUpwind grad(pi);
    div(phi,pij)    Gauss linearUpwind grad(pi);
    div(phi,pij)    Gauss linearUpwind grad(pi);
    div(phi,pij)    Gauss linearUpwind grad(pi);
    div(phi,pij)    Gauss linearUpwind grad(pi);
    div(phi,pij)    Gauss linearUpwind grad(pi);
    div(phi,pij)    Gauss linearUpwind grad(pi);
    div(phi,pij)    Gauss linearUpwind grad(pi);
    div(phi,pij)    Gauss linearUpwind grad(pi);
    div(phi,pij)    Gauss linearUpwind grad(pi);
    div(phi,pij)    Gauss linearUpwind grad(pi);
    div(phi,pij)    Gauss linearUpwind grad(pi);
    div(phi,pij)    Gauss linearUpwind grad(pi);
    div(phi,pij)    Gauss linearUpwind grad(pi);
    div(phi,pij)    Gauss linearUpwind grad(pi);
    div(phi,pij)    Gauss linearUpwind grad(pi);
    div(phi,pij)    Gauss linearUpwind grad(pi);
    div(phi,pij)    Gauss linearUpwind grad(pi);
    div(phi,pij)    Gauss linearUpwind grad(pi);
    div(phi,pij)    Gauss linearUpwind grad(pi);
    div(phi,pij)    Gauss linearUpwind grad(pi);
    div(phi,pij)    Gauss linearUpwind grad(pi);
    div(phi,pij)    Gauss linearUpwind grad(pi);
    div(phi,pij)    Gauss linearUpwind grad(pi);
    div(phi,pij)    Gauss linearUpwind grad(pi);
    div(phi,pij)    Gauss linearUpwind grad(pi);
    div(phi,pij)    Gauss linearUpwind grad(pi);
    div(phi,pij)    Gauss linearUpwind grad(pi);
    div(phi,pij)    Gauss linearUpwind grad(pi);
    div(phi,pij)    Gauss linearUpwind grad(pi);
    div(phi,pij)    Gauss linearUpwind grad(pi);
    div(phi,pij)    Gauss linearUpwind grad(pi);
    div(phi,pij)    Gauss linearUpwind grad(pi);
    div(phi,pij)    Gauss linearUpwind grad(pi);
    div(phi,pij)    Gauss linearUpwind grad(pi);
    div(phi,pij)    Gauss linearUpwind grad(pi);
    div(phi,pij)    Gauss linearUpwind grad(pi);
    div(phi,pij)    Gauss linearUpwind grad(pi);
    div(phi,pij)    Gauss linearUpwind grad(pi);
    div(phi,pij)    Gauss linearUpwind grad(pi);
    div(phi,pij)    Gauss linearUpwind grad(pi);
    div(phi,pij)    Gauss linearUpwind grad(pi);
    div(phi,pij)    Gauss linearUpwind grad(pi);
    div(phi,pij)    Gauss linearUpwind grad(pi);
    div(phi,pij)    Gauss linearUpwind grad(pi);
    div(phi,pij)    Gauss linearUpwind grad(pi);
    div(phi,pij)    Gauss linearUpwind grad(pi);
    div(phi,pij)    Gauss linearUpwind grad(pi);
    div(phi,pij)    Gauss linearUpwind grad(pi);
    div(phi,pij)    Gauss linearUpwind grad(pi);
    div(phi,pij)    Gauss linearUpwind grad(pi);
    div(phi,pij)    Gauss linearUpwind grad(pi);
    div(phi,pij)    Gauss linearUpwind grad(pi);
    div(phi,pij)    Gauss linearUpwind grad(pi);
    div(phi,pij)    Gauss linearUpwind grad(pi);
    div(phi,pij)    Gauss linearUpwind grad(pi);
    div(phi,pij)    Gauss linearUpwind grad(pi);
    div(phi,pij)    Gauss linearUpwind grad(pi);
    div(phi,pij)    Gauss linearUpwind grad(pi);
    div(phi,pij)    Gauss linearUpwind grad(pi);
    div(phi,pij)    Gauss linearUpwind grad(pi);
    div(phi,pij)    Gauss linearUpwind grad(pi);
    div(phi,pij)    Gauss linearUpwind grad(pi);
    div(phi,pij)    Gauss linearUpwind grad(pi);
    div(phi,pij)    Gauss linearUpwind grad(pi);
    div(phi,pij)    Gauss linearUpwind grad(pi);
    div(phi,pij)    Gauss linearUpwind grad(pi);
    div(phi,pij)    Gauss linearUpwind grad(pi);
    div(phi,pij)    Gauss linearUpwind grad(pi);
    div(phi,pij)    Gauss linearUpwind grad(pi);
    div(phi,pij)    Gauss linearUpwind grad(pi);
    div(phi,pij)    Gauss linearUpwind grad(pi);
    div(phi,pij)    Gauss linearUpwind grad(pi);
    div(phi,pij)    Gauss linearUpwind grad(pi);
    div(phi,pij)    Gauss linearUpwind grad(pi);
    div(phi,pij)    Gauss linearUpwind grad(pi);
    div(phi,pij)    Gauss linearUpwind grad(pi);
    div(phi,pij)    Gauss linearUpwind grad(pi);
    div(phi,pij)    Gauss linearUpwind grad(pi);
    div(phi,pij)    Gauss linearUpwind grad(pi);
    div(phi,pij)    Gauss linearUpwind grad(pi);
    div(phi,pij)    Gauss linearUpwind grad(pi);
    div(phi,pij)    Gauss linearUpwind grad(pi);
    div(phi,pij)    Gauss linearUpwind grad(pi);
    div(phi,pij)    Gauss linearUpwind grad(pi);
    div(phi,pij)    Gauss linearUpwind grad(pi);
    div(phi,pij)    Gauss linearUpwind grad(pi);
    div(phi,pij)    Gauss linearUpwind grad(pi);
    div(phi,pij)    Gauss linearUpwind grad(pi);
    div(phi,pij)    Gauss linearUpwind grad(pi);
    div(phi,pij)    Gauss linearUpwind grad(pi);
    div(phi,pij)    Gauss linearUpwind grad(pi);
    div(phi,pij)    Gauss linearUpwind grad(pi);
    div(phi,pij)    Gauss linearUpwind grad(pi);
    div(phi,pij)    Gauss linearUpwind grad(pi);
    div(phi,pij)    Gauss linearUpwind grad(pi);
    div(phi,pij)    Gauss linearUpwind grad(pi);
    div(phi,pij)    Gauss linearUpwind grad(pi);
    div(phi,pij)    Gauss linearUpwind grad(pi);
    div(phi,pij)    Gauss linearUpwind grad(pi);
    div(phi,pij)    Gauss linearUpwind grad(pi);
    div(phi,pij)    Gauss linearUpwind grad(pi);
    div(phi,pij)    Gauss linearUpwind grad(pi);
    div(phi,pij)    Gauss linearUpwind grad(pi);
    div(phi,pij)    Gauss linearUpwind grad(pi);
    div(phi,pij)    Gauss linearUpwind grad(pi);
    div(phi,pij)    Gauss linearUpwind grad(pi);
    div(phi,pij)    Gauss linearUpwind grad(pi);
    div(phi,pij)    Gauss linearUpwind grad(pi);
    div(phi,pij)    Gauss linearUpwind grad(pi);
    div(phi,pij)    Gauss linearUpwind grad(pi);
    div(phi,pij)    Gauss linearUpwind grad(pi);
    div(phi,pij)    Gauss linearUpwind grad(pi);
    div(phi,pij)    Gauss linearUpwind grad(pi);
    div(phi,pij)    Gauss linearUpwind grad(pi);
    div(phi,pij)    Gauss linearUpwind grad(pi);
    div(phi,pij)    Gauss linearUpwind grad(pi);
    div(phi,pij)    Gauss linearUpwind grad(pi);
    div(phi,pij)    Gauss linearUpwind grad(pi);
    div(phi,pij)    Gauss linearUpwind grad(pi);
    div(phi,pij)    Gauss linearUpwind grad(pi);
    div(phi,pij)    Gauss linearUpwind grad(pi);
    div(phi,pij)    Gauss linearUpwind grad(pi);
    div(phi,pij)    Gauss linearUpwind grad(pi);
    div(phi,pij)    Gauss linearUpwind grad(pi);
    div(phi,pij)    Gauss linearUpwind grad(pi);
    div(phi,pij)    Gauss linearUpwind grad(pi);
    div(phi,pij)    Gauss linearUpwind grad(pi);
    div(phi,pij)    Gauss linearUpwind grad(pi);
    div(phi,pij)    Gauss linearUpwind grad(pi);
    div(phi,pij)    Gauss linearUpwind grad(pi);
    div(phi,pij)    Gauss linearUpwind grad(pi);
    div(phi,pij)    Gauss linearUpwind grad(pi);
    div(phi,pij)    Gauss linearUpwind grad(pi);
    div(phi,pij)    Gauss linearUpwind grad(pi);
    div(phi,pij)    Gauss linearUpwind grad(pi);
    div(phi,pij)    Gauss linearUpwind grad(pi);
    div(phi,pij)    Gauss linearUpwind grad(pi);
    div(phi,pij)    Gauss linearUpwind grad(pi);
    div(phi,pij)    Gauss linearUpwind grad(pi);
    div(phi,pij)    Gauss linearUpwind grad(pi);
    div(phi,pij)    Gauss linearUpwind grad(pi);
    div(phi,pij)    Gauss linearUpwind grad(pi);
    div(phi,pij)    Gauss linearUpwind grad(pi);
    div(phi,pij)    Gauss linearUpwind grad(pi);
    div(phi,pij)    Gauss linearUpwind grad(pi);
    div(phi,pij)    Gauss linearUpwind grad(pi);
    div(phi,pij)    Gauss linearUpwind grad(pi);
    div(phi,pij)    Gauss linearUpwind grad(pi);
    div(phi,pij)    Gauss linearUpwind grad(pi);
    div(phi,pij)    Gauss linearUpwind grad(pi);
    div(phi,pij)    Gauss linearUpwind grad(pi);
    div(phi,pij)    Gauss linearUpwind grad(pi);
    div(phi,pij)    Gauss linearUpwind grad(pi);
    div(phi,pij)    Gauss linearUpwind grad(pi);
    div(phi,pij)    Gauss linearUpwind grad(pi);
    div(phi,pij)    Gauss linearUpwind grad(pi);
    div(phi,pij)    Gauss linearUpwind grad(pi);
    div(phi,pij)    Gauss linearUpwind grad(pi);
    div(phi,pij)    Gauss linearUpwind grad(pi);
    div(phi,pij)    Gauss linearUpwind grad(pi);
    div(phi,pij)    Gauss linearUpwind grad(pi);
    div(phi,pij)    Gauss linearUpwind grad(pi);
    div(phi,pij)    Gauss linearUpwind grad(pi);
    div(phi,pij)    Gauss linearUpwind grad(pi);
    div(phi,pij)    Gauss linearUpwind grad(pi);
    div(phi,pij)    Gauss linearUpwind grad(pi);
    div(phi,pij)    Gauss linearUpwind grad(pi);
    div(phi,pij)    Gauss linearUpwind grad(pi);
    div(phi,pij)    Gauss linearUpwind grad(pi);
    div(phi,pij)    Gauss linearUpwind grad(pi);
    div(phi,pij)    Gauss linearUpwind grad(pi);
    div(phi,pij)    Gauss linearUpwind grad(pi);
    div(phi,pij)    Gauss linearUpwind grad(pi);
    div(phi,pij)    Gauss linearUpwind grad(pi);
    div(phi,pij)    Gauss linearUpwind grad(pi);
    div(phi,pij)    Gauss linearUpwind grad(pi);
    div(phi,pij)    Gauss linearUpwind grad(pi);
    div(phi,pij)    Gauss linearUpwind grad(pi);
    div(phi,pij)    Gauss linearUpwind grad(pi);
    div(phi,pij)    Gauss linearUpwind grad(pi);
    div(phi,pij)    Gauss linearUpwind grad(pi);
    div(phi,pij)    Gauss linearUpwind grad(pi);
    div(phi,pij)    Gauss linearUpwind grad(pi);
    div(phi,pij)    Gauss linearUpwind grad(pi);
    div(phi,pij)    Gauss linearUpwind grad(pi);
    div(phi,pij)    Gauss linearUpwind grad(pi);
    div(phi,pij)    Gauss linearUpwind grad(pi);
    div(phi,pij)    Gauss linearUpwind grad(pi);
    div(phi,pij)    Gauss linearUpwind grad(pi);
    div(phi,pij)    Gauss linearUpwind grad(pi);
    div(phi,pij)    Gauss linearUpwind grad(pi);
    div(phi,pij)    Gauss linearUpwind grad(pi);
    div(phi,pij)    Gauss linearUpwind grad(pi);
    div(phi,pij)    Gauss linearUpwind grad(pi);
    div(phi,pij)    Gauss linearUpwind grad(pi);
    div(phi,pij)    Gauss linearUpwind grad(pi);
    div(phi,pij)    Gauss linearUpwind grad(pi);
    div(phi,pij)    Gauss linearUpwind grad(pi);
    div(phi,pij)    Gauss linearUpwind grad(pi);
    div(phi,pij)    Gauss linearUpwind grad(pi);
    div(phi,pij)    Gauss linearUpwind grad(pi);
    div(phi,pij)    Gauss linearUpwind grad(pi);
    div(phi,pij)    Gauss linearUpwind grad(pi);
    div(phi,pij)    Gauss linearUpwind grad(pi);
    div(phi,pij)    Gauss linearUpwind grad(pi);
    div(phi,pij)    Gauss linearUpwind grad(pi);
    div(phi,pij)    Gauss linearUpwind grad(pi);
    div(phi,pij)    Gauss linearUpwind grad(pi);
    div(phi,pij)    Gauss linearUpwind grad(pi);
    div(phi,pij)    Gauss linearUpwind grad(pi);
    div(phi,pij)    Gauss linearUpwind grad(pi);
    div(phi,pij)    Gauss linearUpwind grad(pi);
    div(phi,pij)    Gauss linearUpwind grad(pi);
    div(phi,pij)    Gauss linearUpwind grad(pi);
    div(phi,pij)    Gauss linearUpwind grad(pi);
    div(phi,pij)    Gauss linearUpwind grad(pi);
    div(phi,pij)    Gauss linearUpwind grad(pi);
    div(phi,pij)    Gauss linearUpwind grad(pi);
    div(phi,pij)    Gauss linearUpwind grad(pi);
    div(phi,pij)    Gauss linearUpwind grad(pi);
    div(phi,pij)    Gauss linearUpwind grad(pi);
    div(phi,pij)    Gauss linearUpwind grad(pi);
    div(phi,pij)    Gauss linearUpwind grad(pi);
    div(phi,pij)    Gauss linearUpwind grad(pi);
    div(phi,pij)    Gauss linearUpwind grad(pi);
    div(phi,pij)    Gauss linearUpwind grad(pi);
    div(phi,pij)    Gauss linearUpwind grad(pi);
    div(phi,pij)    Gauss linearUpwind grad(pi);
    div(phi,pij)    Gauss linearUpwind grad(pi);
    div(phi,pij)    Gauss linearUpwind grad(pi);
    div(phi,pij)    Gauss linearUpwind grad(pi);
    div(phi,pij)    Gauss linearUpwind grad(pi);
    div(phi,pij)    Gauss linearUpwind grad(pi);
    div(phi,pij)    Gauss linearUpwind grad(pi);
    div(phi,pij)    Gauss linearUpwind grad(pi);
    div(phi,pij)    Gauss linearUpwind grad(pi);
    div(phi,pij)    Gauss linearUpwind grad(pi);
    div(phi,pij)    Gauss linearUpwind grad(pi);
    div(phi,pij)    Gauss linearUpwind grad(pi);
    div(phi,pij)    Gauss linearUpwind grad(pi);
    div(phi,pij)    Gauss linearUpwind grad(pi);
    div(phi,pij)    Gauss linearUpwind grad(pi);
    div(phi,pij)    Gauss linearUpwind grad(pi);
    div(phi,pij)    Gauss linearUpwind grad(pi);
    div(phi,pij)    Gauss linearUpwind grad(pi);
    div(phi,pij)    Gauss linearUpwind grad(pi);
    div(phi,pij)    Gauss linearUpwind grad(pi);
    div(phi,pij)    Gauss linearUpwind grad(pi);
    div(phi,pij)    Gauss linearUpwind grad(pi);
    div(phi,pij)    Gauss linearUpwind grad(pi);
    div(phi,pij)    Gauss linearUpwind grad(pi);
    div(phi,pij)    Gauss linearUpwind grad(pi);
    div(phi,pij)    Gauss linearUpwind grad(pi);
    div(phi,pij)    Gauss linearUpwind grad(pi);
    div(phi,pij)    Gauss linearUpwind grad(pi);
    div(phi,pij)    Gauss linearUpwind grad(pi);
    div(phi,pij)    Gauss linearUpwind grad(pi);
    div(phi,pij)    Gauss linearUpwind grad(pi);
    div(phi,pij)    Gauss linearUpwind grad(pi);
    div(phi,pij)    Gauss linearUpwind grad(pi);
    div(phi,pij)    Gauss linearUpwind grad(pi);
    div(phi,pij)    Gauss linearUpwind grad(pi);
    div(phi,pij)    Gauss linearUpwind grad(pi);
    div(phi,pij)    Gauss linearUpwind grad(pi);
    div(phi,pij)    Gauss linearUpwind grad(pi);
    div(phi,pij)    Gauss linearUpwind grad(pi);
    div(phi,pij)    Gauss linearUpwind grad(pi);
    div(phi,pij)    Gauss linearUpwind grad(pi);
    div(phi,pij)    Gauss linearUpwind grad(pi);
    div(phi,pij)    Gauss linearUpwind grad(pi);
    div(phi,pij)    Gauss linearUpwind grad(pi);
    div(phi,pij)    Gauss linearUpwind grad(pi);
    div(phi,pij)    Gauss linearUpwind grad(pi);
    div(phi,pij)    Gauss linearUpwind grad(pi);
    div(phi,pij)    Gauss linearUpwind grad(pi);
    div(phi,pij)    Gauss linearUpwind grad(pi);
    div(phi,pij)    Gauss linearUpwind grad(pi);
    div(phi,pij)    Gauss linearUpwind grad(pi);
    div(phi,pij)    Gauss linearUpwind grad(pi);
    div(phi,pij)    Gauss linearUpwind grad(pi);
    div(phi,pij)    Gauss linearUpwind grad(pi);
    div(phi,pij)    Gauss linearUpwind grad(pi);
    div(phi,pij)    Gauss linearUpwind grad(pi);
    div(phi,pij)    Gauss linearUpwind grad(pi);
    div(phi,pij)    Gauss linearUpwind grad(pi);
    div(phi,pij)    Gauss linearUpwind grad(pi);
    div(phi,pij)    Gauss linearUpwind grad(pi);
    div(phi,pij)    Gauss linearUpwind grad(pi);
    div(phi,pij)    Gauss linearUpwind grad(pi);
    div(phi,pij)    Gauss linearUpwind grad(pi);
    div(phi,pij)    Gauss linearUpwind grad(pi);
    div(phi,pij)    Gauss linearUpwind grad(pi);
    div(phi,pij)    Gauss linearUpwind grad(pi);
    div(phi,pij)    Gauss linearUpwind grad(pi);
    div(phi,pij)    Gauss linearUpwind grad(pi);
    div(phi,pij)    Gauss linearUpwind grad(pi);
    div(phi,pij)    Gauss linearUpwind grad(pi);
    div(phi,pij)    Gauss linearUpwind grad(pi);
    div(phi,pij)    Gauss linearUpwind grad(pi);
    div(phi,pij)    Gauss linearUpwind grad(pi);
    div(phi,pij)    Gauss linearUpwind grad(pi);
    div(phi,pij)    Gauss linearUpwind grad(pi);
    div(phi,pij)    Gauss linearUpwind grad(pi);
    div(phi,pij)    Gauss linearUpwind grad(pi);
    div(phi,pij)    Gauss linearUpwind grad(pi);
    div(phi,pij)    Gauss linearUpwind grad(pi);
    div(phi,pij)    Gauss linearUpwind grad(pi);
    div(phi,pij)    Gauss linearUpwind grad(pi);
    div(phi,pij)    Gauss linearUpwind grad(pi);
    div(phi,pij)    Gauss linearUpwind grad(pi);
    div(phi,pij)    Gauss linearUpwind grad(pi);
    div(phi,pij)    Gauss linearUpwind grad(pi);
    div(phi,pij)    Gauss linearUpwind grad(pi);
    div(phi,pij)    Gauss linearUpwind grad(pi);
    div(phi,pij)    Gauss linearUpwind grad(pi);
    div(phi,pij)    Gauss linearUpwind grad(pi);
    div(phi,pij)    Gauss linearUpwind grad(pi);
    div(phi,pij)    Gauss linearUpwind grad(pi);
    div(phi,pij)    Gauss linearUpwind grad(pi);
    div(phi,pij)    Gauss linearUpwind grad(pi);
    div(phi,pij)    Gauss linearUpwind grad(pi);
    div(phi,pij)    Gauss linearUpwind grad(pi);
    div(phi,pij)    Gauss linearUpwind grad(pi);
    div(phi,pij)    Gauss linearUpwind grad(pi);
    div(phi,pij)    Gauss linearUpwind grad(pi);
    div(phi,pij)    Gauss linearUpwind grad(pi);
    div(phi,pij)    Gauss linearUpwind grad(pi);
    div(phi,pij)    Gauss linearUpwind grad(pi);
    div(phi,pij)    Gauss linearUpwind grad(pi);
    div(phi,pij)    Gauss linearUpwind grad(pi);
    div(phi,pij)    Gauss linearUpwind grad(pi);
    div(phi,pij)    Gauss linearUpwind grad(pi);
    div(phi,pij)    Gauss linearUpwind grad(pi);
    div(phi,pij)    Gauss linearUpwind grad(pi);
    div(phi,pij)    Gauss linearUpwind grad(pi);
    div(phi,pij)    Gauss linearUpwind grad(pi);
    div(phi,pij)    Gauss linearUpwind grad(pi);
    div(phi,pij)    Gauss linearUpwind grad(pi);
    div(phi,pij)    Gauss linearUpwind grad(pi);
    div(phi,pij)    Gauss linearUpwind grad(pi);
    div(phi,pij)    Gauss linearUpwind grad(pi);
    div(phi,pij)    Gauss linearUpwind grad(pi);
    div(phi,pij)    Gauss linearUpwind grad(pi);
    div(phi,pij)    Gauss linearUpwind grad(pi);
    div(phi,pij)    Gauss linearUpwind grad(pi);
    div(phi,pij)    Gauss linearUpwind grad(pi);
    div(phi,pij)    Gauss linearUpwind grad(pi);
    div(phi,pij)    Gauss linearUpwind grad(pi);
    div(phi,pij)    Gauss linearUpwind grad(pi);
    div(phi,pij)    Gauss linearUpwind grad(pi);
    div(phi,pij)    Gauss linearUpwind grad(pi);
    div(phi,pij)    Gauss linearUpwind grad(pi);
    div(phi,pij)    Gauss linearUpwind grad(pi);
    div(phi,pij)    Gauss linearUpwind grad(pi);
    div(phi,pij)    Gauss linearUpwind grad(pi);
    div(phi,pij)    Gauss linearUpwind grad(pi);
    div(phi,pij)    Gauss linearUpwind grad(pi);
    div(phi,pij)    Gauss linearUpwind grad(pi);
    div(phi,pij)    Gauss linearUpwind grad(pi);
    div(phi,pij)    Gauss linearUpwind grad(pi);
    div(phi,pij)    Gauss linearUpwind grad(pi);
    div(phi,pij)    Gauss linearUpwind grad(pi);
    div(phi,pij)    Gauss linearUpwind grad(pi);
    div(phi,pij)    Gauss linearUpwind grad(pi);
    div(phi,pij)    Gauss linearUpwind grad(pi);
    div(phi,pij)    Gauss linearUpwind grad(pi);
    div(phi,pij)    Gauss linearUpwind grad(pi);
    div(phi,pij)    Gauss linearUpwind grad(pi);
    div(phi,pij)    Gauss linearUpwind grad(pi);
    div(phi,pij)    Gauss linearUpwind grad(pi);
    div(phi,pij)    Gauss linearUpwind grad(pi);
    div(phi,pij)    Gauss linearUpwind grad(pi);
    div(phi,pij)    Gauss linearUpwind grad(pi);
    div(phi,pij)    Gauss linearUpwind grad(pi);
    div(phi,pij)    Gauss linearUpwind grad(pi);
    div(phi,pij)    Gauss linearUpwind grad(pi);
    div(phi,pij)    Gauss linearUpwind grad(pi);
    div(phi,pij)    Gauss linearUpwind grad(pi);
    div(phi,pij)    Gauss linearUpwind grad(pi);
    div(phi,pij)    Gauss linearUpwind grad(pi);
    div(phi,pij)    Gauss linearUpwind grad(pi);
    div(phi,pij)    Gauss linearUpwind grad(pi);
    div(phi,pij)    Gauss linearUpwind grad(pi);
    div(phi,pij)    Gauss linearUpwind grad(pi);
    div(phi,pij)    Gauss linearUpwind grad(pi);
    div(phi,pij)    Gauss linearUpwind grad(pi);
    div(phi,pij)    Gauss linearUpwind grad(pi);
    div(phi,pij)    Gauss linearUpwind grad(pi);
    div(phi,pij)    Gauss linearUpwind grad(pi);
    div(phi,pij)    Gauss linearUpwind grad(pi);
    div(phi,pij)    Gauss linearUpwind grad(pi);
    div(phi,pij)    Gauss linearUpwind grad(pi);
    div(phi,pij)    Gauss linearUpwind grad(pi);
    div(phi,pij)    Gauss linearUpwind grad(pi);
    div(phi,pij)    Gauss linearUpwind grad(pi);
    div(phi,pij)    Gauss linearUpwind grad(pi);
    div(phi,pij)    Gauss linearUpwind grad(pi);
    div(phi,pij)    Gauss linearUpwind grad(pi);
    div(phi,pij)    Gauss linearUpwind grad(pi);
    div(phi,pij)    Gauss linearUpwind grad(pi);
    div(phi,pij)    Gauss linearUpwind grad(pi);
    div(phi,pij)    Gauss linearUpwind grad(pi);
    div(phi,pij)    Gauss linearUpwind grad(pi);
    div(phi,pij)    Gauss linearUpwind grad(pi);
    div(phi,pij)    Gauss linearUpwind grad(pi);
    div(phi,pij)    Gauss linearUpwind grad(pi);
    div(phi,pij)    Gauss linearUpwind grad(pi);
    div(phi,pij)    Gauss linearUpwind grad(pi);
    div(phi,pij)    Gauss linearUpwind grad(pi);
    div(phi,pij)    Gauss linearUpwind grad(pi);
    div(phi,pij)    Gauss linearUpwind grad(pi);
    div(phi,pij)    Gauss linearUpwind grad(pi);
    div(phi,pij)    Gauss linearUpwind grad(pi);
    div(phi,pij)    Gauss linearUpwind grad(pi);
    div(phi,pij)    Gauss linearUpwind grad(pi);
    div(phi,pij)    Gauss linearUpwind grad(pi);
    div(phi,pij)    Gauss linearUpwind grad(pi);
    div(phi,pij)    Gauss linearUpwind grad(pi);
    div(phi,pij)    Gauss linearUpwind grad(pi);
    div(phi,pij)    Gauss linearUpwind grad(pi);
    div(phi,pij)    Gauss linearUpwind grad(pi);
    div(phi,pij)    Gauss linearUpwind grad(pi);
    div(phi,pij)    Gauss linearUpwind grad(pi);
    div(phi,pij)    Gauss linearUpwind grad(pi);
    div(phi,pij)    Gauss linearUpwind grad(pi);
    div(phi,pij)    Gauss linearUpwind grad(pi);
    div(phi,pij)    Gauss linearUpwind grad(pi);
    div(phi,pij)    Gauss linearUpwind grad(pi);
    div(phi,pij)    Gauss linearUpwind grad(pi);
    div(phi,pij)    Gauss linearUpwind grad(pi);
    div(phi,pij)    Gauss linearUpwind grad(pi);
    div(phi,pij)    Gauss linearUpwind grad(pi);
    div(phi,pij)    Gauss linearUpwind grad(pi);
    div(phi,pij)    Gauss linearUpwind grad(pi);
    div(phi,pij)    Gauss linearUpwind grad(pi);
    div(phi,pij)    Gauss linearUpwind grad(pi);
    div(phi,pij)    Gauss linearUpwind grad(pi);
    div(phi,pij)    Gauss linearUpwind grad(pi);
    div(phi,pij)    Gauss linearUpwind grad(pi);
    div(phi,pij)    Gauss linearUpwind grad(pi);
    div(phi,pij)    Gauss linearUpwind grad(pi);
    div(phi,pij)    Gauss linearUpwind grad(pi);
    div(phi,pij)    Gauss linearUpwind grad(pi);
    div(phi,pij)    Gauss linearUpwind grad(pi);
    div(phi,pij)    Gauss linearUpwind grad(pi);
    div(phi,pij)    Gauss linearUpwind grad(pi);
    div(phi,pij)    Gauss linearUpwind grad(pi);
    div(phi,pij)    Gauss linearUpwind grad(pi);
    div(phi,pij)    Gauss linearUpwind grad(pi);
    div(phi,pij)    Gauss linearUpwind grad(pi);
    div(phi,pij)    Gauss linearUpwind grad(pi);
    div(phi,pij)    Gauss linearUpwind grad(pi);
    div(phi,pij)    Gauss linearUpwind grad(pi);
    div(phi,pij)    Gauss linearUpwind grad(pi);
    div(phi,pij)    Gauss linearUpwind grad(pi);
    div(phi,pij)    Gauss linearUpwind grad(pi);
    div(phi,pij)    Gauss linearUpwind grad(pi);
    div(phi,pij)    Gauss linearUpwind grad(pi);
    div(phi,pij)    Gauss linearUpwind grad(pi);
    div(phi,pij)    Gauss linearUpwind grad(pi);
    div(phi,pij)    Gauss linearUpwind grad(pi);
    div(phi,pij)    Gauss linearUpwind grad(pi);
    div(phi,pij)    Gauss linearUpwind grad(pi);
    div(phi,pij)    Gauss linearUpwind grad(pi);
    div(phi,pij)    Gauss linearUpwind grad(pi);
    div(phi,pij)    Gauss linearUpwind grad(pi);
    div(phi,pij)    Gauss linearUpwind grad(pi);
    div(phi,pij)    Gauss linearUpwind grad(pi);
    div(phi,pij)    Gauss linearUpwind grad(pi);
    div(phi,pij)    Gauss linearUpwind grad(pi);
    div(phi,pij)    Gauss linearUpwind grad(pi);
    div(phi,pij)    Gauss linearUpwind grad(pi);
    div(phi,pij)    Gauss linearUpwind grad(pi);
    div(phi,pij)    Gauss linearUpwind grad(pi);
    div(phi,pij)    Gauss linearUpwind grad(pi);
    div(phi,pij)    Gauss linearUpwind grad(pi);
    div(phi,pij)    Gauss linearUpwind grad(pi);
    div(phi,pij)    Gauss linearUpwind grad(pi);
    div(phi,pij)    Gauss linearUpwind grad(pi);
    div(phi,pij)    Gauss linearUpwind grad(pi);
    div(phi,pij)    Gauss linearUpwind grad(pi);
    div(phi,pij)    Gauss linearUpwind grad(pi);
    div(phi,pij)    Gauss linearUpwind grad(pi);
    div(phi,pij)    Gauss linearUpwind grad(pi);
    div(phi,pij)    Gauss linearUpwind grad(pi);
    div(phi,pij)    Gauss linearUpwind grad(pi);
    div(phi,pij)    Gauss linearUpwind grad(pi);
    div(phi,pij)    Gauss linearUpwind grad(pi);
    div(phi,pij)    Gauss linearUpwind grad(pi);
    div(phi,pij)    Gauss linearUpwind grad(pi);
    div(phi,pij)    Gauss linearUpwind grad(pi);
    div(phi,pij)    Gauss linearUpwind grad(pi);
    div(phi,pij)    Gauss linearUpwind grad(pi);
    div(phi,pij)    Gauss linearUpwind grad(pi);
    div(phi,pij)    Gauss linearUpwind grad(pi);
    div(phi,pij)    Gauss linearUpwind grad(pi);
    div(phi,pij)    Gauss linearUpwind grad(pi);
    div(phi,pij)    Gauss linearUpwind grad(pi);
    div(phi,pij)    Gauss linearUpwind grad(pi);
    div(phi,pij)    Gauss linearUpwind grad(pi);
    div(phi,pij)    Gauss linearUpwind grad(pi);
    div(phi,pij)    Gauss linearUpwind grad(pi);
    div(phi,pij)    Gauss linearUpwind grad(pi);
    div(phi,pij)    Gauss linearUpwind grad(pi);
    div(phi,pij)    Gauss linearUpwind grad(pi);
    div(phi,pij)    Gauss linearUpwind grad(pi);
    div(phi,pij)    Gauss linearUpwind grad(pi);
    div(phi,pij)    Gauss linearUpwind grad(pi);
    div(phi,pij)    Gauss linearUpwind grad(pi);
    div(phi,pij)    Gauss linearUpwind grad(pi);
    div(phi,pij)    Gauss linearUpwind grad(pi);
    div(phi,pij)    Gauss linearUpwind grad(pi);
    div(phi,pij)    Gauss linearUpwind grad(pi);
    div(phi,pij)    Gauss linearUpwind grad(pi);
    div(phi,pij)    Gauss linearUpwind grad(pi);
    div(phi,pij)    Gauss linearUpwind grad(pi);
    div(phi,pij)    Gauss linearUpwind grad(pi);
    div(phi,pij)    Gauss linearUpwind grad(pi);
    div(phi,pij)    Gauss linearUpwind grad(pi);
    div(phi,pij)    Gauss linearUpwind grad(pi);
    div(phi,pij)    Gauss linearUpwind grad(pi);
    div(phi,pij)    Gauss linearUpwind grad(pi);
    div(phi,pij)    Gauss linearUpwind grad(pi);
    div(phi,pij)    Gauss linearUpwind grad(pi);
    div(phi,pij)    Gauss linearUpwind grad(pi);
    div(phi,pij)    Gauss linearUpwind grad(pi);
    div(phi,pij)    Gauss linearUpwind grad(pi);
    div(phi,pij)    Gauss linearUpwind grad(pi);
    div(phi,pij)    Gauss linearUpwind grad(pi);
    div(phi,pij)    Gauss linearUpwind grad(pi);
    div(phi,pij)    Gauss linearUpwind grad(pi);
    div(phi,pij)    Gauss linearUpwind grad(pi);
    div(phi,pij)    Gauss linearUpwind grad(pi);
    div(phi,pij)    Gauss linearUpwind grad(pi);
    div(phi,pij)    Gauss linearUpwind grad(pi);
    div(phi,pij)    Gauss linearUpwind grad(pi);
    div(phi,pij)    Gauss linearUpwind grad(pi);
    div(phi,pij)    Gauss linearUpwind grad(pi);
    div(phi,pij)    Gauss linearUpwind grad(pi);
    div(phi,pij)    Gauss linearUpwind grad(pi);
    div(phi,pij)    Gauss linearUpwind grad(pi);
    div(phi,pij)    Gauss linearUpwind grad(pi);
    div(phi,pij)    Gauss linearUpwind grad(pi);
    div(phi,pij)    Gauss linearUpwind grad(pi);
    div(phi,pij)    Gauss linearUpwind grad(pi);
    div(phi,pij)    Gauss linearUpwind grad(pi);
    div(phi,pij)    Gauss linearUpwind grad(pi);
    div(phi,pij)    Gauss linearUpwind grad(pi);
    div(phi,pij)    Gauss linearUpwind grad(pi);