FoamFile
{
    version     2.0;
    format      ascii;
    class       dictionary;
    object      blockMeshDict;
}
// * * * * * * * * * * * * * * * * * * * * * * * * * * * * * * * * * * * * * //

convertToMeters 1;

vertices
(
    (0 0 0)
    (1 0 0)
    (1 0.2 0)
    (0 0.2 0)
    (0 0.2 0.1)
    (1 0.2 0.1)
    (1 0.4 0.1)
    (0 0.4 0.1)
);

blocks
(
    hex (0 1 2 3 4 5 6 7) (20 40 1) simpleGrading (1 1 1)
);

edges
(
);

boundary
(
    inlet
    {
        type patch;
        faces
        (
            (0 3 2 1)
        );
    }

    outlet
    {
        type patch;
        faces
        (
            (5 6 7 4)
        );
    }

    obstacle
    {
        type wall;
        faces
        (
            (3 7 6 4)
        );
    }

    frontAndBack
    {
        type empty;
        faces
        (
            (0 1 5 4)
            (2 3 7 6)
        );
    }
);

mergePatchPairs
(
);

// ************************************************************************* //