FoamFile
{
    format      ascii;
    class       dictionary;
    location    "constant";
    object      MRFProperties;
}


MRF1
{
    cellZone    bend;

    
    nonRotatingPatches ();

    origin    (0 0 0);
    axis      (1 0 0);
    omega     constant 1;
}