FoamFile
{
    format      ascii;
    class       dictionary;
    location    "constant";
    object      physicalProperties;
}


thermoType
{
    type            hePsiThermo;
    mixture         pureMixture;
    transport       const;
    thermo          hConst;
    equationOfState perfectGas;
    specie          specie;
    energy          sensibleInternalEnergy;
}

mixture
{
    specie
    {
        molWeight   18;
    }
    thermodynamics
    {
        Cp          1005;
        Hf          0;
    }
    transport
    {
        mu          1.8e-05;
        Pr          0.7;
    }
}