FoamFile
{
    format      ascii;
    class       dictionary;
    object      blockMeshDict;
}


convertToMeters 1;

vertices
(
    (-50 25 25)   // 0
    (-50 25 -25)  // 1
    (-50 -75 25)  // 2
    (-50 -75 -25) // 3
    (-500 25 25)  // 4
    (-500 25 -25) // 5
    (-500 -75 25) // 6
    (-500 -75 -25) // 7
    (25 0 25)     // 8
    (25 0 -25)    // 9
);

blocks
(
    hex (0 1 3 2 4 5 7 6) (20 20 20) simpleGrading (1 1 1)
    hex (8 9 7 6 4 5 7 6) (20 20 20) simpleGrading (1 1 1)
);

defaultPatch
{
    type patch;
}

boundary
(
    inlet
    {
        type patch;
        faces
        (
            (0 4 7 3)
        );
    }

    outlet
    {
        type patch;
        faces
        (
            (1 5 6 2)
        );
    }
);