FoamFile
{
    version     2.0;
    format      ascii;
    class       dictionary;
    object      transportProperties;
}

// Transport properties for rhoCentralFoam
// Using normalized properties as requested
// molWeight = 11640.3
// Cp = 2.5
// Pr = 1.0
// mu = 0 (inviscid flow for shock wave)
// R = 0.7143
// gamma = 1.4

mu              0;
Pr              1.0;
molWeight       11640.3;
Cp              2.5;
R               0.7143;
gamma           1.4;