FoamFile
{
    format      ascii;
    class       dictionary;
    location    "system";
    object      controlDict;
}


application     shallowWaterFoam;

startFrom       startTime;

startTime       0;

stopAt          endTime;

endTime         100;

deltaT          0.1;

writeControl    adjustableRunTime;

writeInterval   1;

purgeWrite      0;

writeFormat     ascii;

writePrecision  6;

writeCompression off;

timeFormat      general;

timePrecision   6;

runTimeModifiable yes;

adjustTimeStep  no;

maxCo           1;

functions
{
    #includeFunc graphCell(funcName=graph, start=(0.5 0.005 1), end=(0.5 1 1), U)
}