/*--------------------------------*- C++ -*----------------------------------*\
  =========                 |
  \\      /  F ield         | OpenFOAM: The Open Source CFD Toolbox
   \\    /   O peration     | Website:  https://openfoam.org
    \\  /    A nd           | Version:  10
     \\/     M anipulation  |
\*---------------------------------------------------------------------------*/
FoamFile
{
    format      ascii;
    class       polyBoundaryMesh;
    location    "constant/polyMesh";
    object      boundary;
}
// * * * * * * * * * * * * * * * * * * * * * * * * * * * * * * * * * * * * * //

5
(
    inletFuel
    {
        type            patch;
        nFaces          2500;
        startFace       4900;
    }
    inletAir
    {
        type            patch;
        nFaces          2500;
        startFace       7400;
    }
    outlet
    {
        type            patch;
        nFaces          50;
        startFace       9900;
    }
    frontAndBack
    {
        type            empty;
        inGroups        List<word> 1(empty);
        nFaces          50;
        startFace       9950;
    }
    defaultFaces
    {
        type            empty;
        inGroups        List<word> 1(empty);
        nFaces          100;
        startFace       10000;
    }
)

// ************************************************************************* //
