FoamFile
{
    format      ascii;
    class       volScalarField;
    location    "0";
    object      alphat;
}


dimensions      [1 -1 -1 0 0 0 0];

internalField   uniform 0;

boundaryField
{
    walls
    {
        type            compressible::alphatWallFunction;
        value           uniform 0;
    }
}