FoamFile
{
    format      ascii;
    class       volScalarField;
    location    "0";
    object      epsilon;
}


dimensions      [0 2 -3 0 0 0 0];

internalField   uniform 1;

boundaryField
{
    walls
    {
        type            epsilonWallFunction;
        value           uniform 1;
    }
}