FoamFile
{
    version     2.0;
    format      ascii;
    class       volScalarField;
    object      T;
}

dimensions      [0 0 0 1 0 0 0];

internalField   uniform 300.5;

boundaryField
{
    left
    {
        type            fixedValue;
        value           uniform 301;
    }
    right
    {
        type            fixedValue;
        value           uniform 300;
    }
    bottom
    {
        type            fixedValue;
        value           uniform 300.5;
    }
    top
    {
        type            fixedValue;
        value           uniform 300.5;
    }
    front
    {
        type            empty;
    }
    back
    {
        type            empty;
    }
}