FoamFile
{
    version     2.0;
    format      ascii;
    class       volScalarField;
    object      p_rgh;
}

dimensions      [0 2 -2 0 0 0 0];

internalField   uniform 0;

boundaryField
{
    left
    {
        type            fixedFluxPressure;
        value           uniform 0;
    }
    right
    {
        type            fixedFluxPressure;
        value           uniform 0;
    }
    bottom
    {
        type            fixedFluxPressure;
        value           uniform 0;
    }
    top
    {
        type            fixedFluxPressure;
        value           uniform 0;
    }
    front
    {
        type            empty;
    }
    back
    {
        type            empty;
    }
}