FoamFile
{
    version     2.0;
    format      ascii;
    class       volScalarField;
    object      epsilon;
}
// * * * * * * * * * * * * * * * * * * * * * * * * * * * * * * * * * * * * * //

dimensions      [0 2 -3 0 0 0 0];

internalField   uniform 1.4;

boundaryField
{
    inlet
    {
        type            fixedValue;
        value           uniform 1.4;
    }

    outlet
    {
        type            zeroGradient;
    }

    upperWall
    {
        type            epsilonWallFunction;
        value           uniform 1.4;
    }

    lowerWall
    {
        type            epsilonWallFunction;
        value           uniform 1.4;
    }

    frontAndBack
    {
        type            empty;
    }
}

// ************************************************************************* //