FoamFile
{
    version     2.0;
    format      ascii;
    class       volScalarField;
    location    "0";
    object      h;
}

// * * * * * * * * * * * * * * * * * * * * * * * * * * * * * * * * * * * * * //

dimensions      [0 1 0 0 0 0 0];

internalField   uniform 0.03;

boundaryField
{
    front
    {
        type            empty;
    }

    back
    {
        type            empty;
    }

    bottom
    {
        type            fixedValue;
        value           uniform 0.03;
    }

    top
    {
        type            slip;
    }
}

// * * * * * * * * * * * * * * * * * * * * * * * * * * * * * * * * * * * * * //