FoamFile
{
    version     2.0;
    format      ascii;
    class       dictionary;
    object      blockMeshDict;
}

// Convert to OpenFOAM 2.4+ format
convertToMeters 1;

scale 1;

vertices
(
    // Inlet
    (-10 0 0)
    (-10 1 0)
    (-10 1 1)
    (-10 0 1)
    // Step corner
    (0 0 0)
    (0 1 0)
    (0 1 1)
    (0 0 1)
    // Outlet
    (10 0 0)
    (10 1 0)
    (10 1 1)
    (10 0 1)
);

blocks
(
    hex (0 1 2 3 4 5 6 7) (20 10 1) simpleGrading (1 1 1)
    hex (4 5 6 7 8 9 10 11) (20 10 1) simpleGrading (1 1 1)
);

edges
(
);

boundary
(
    inlet
    {
        type patch;
        faces
        (
            (0 1 2 3)
        );
    }
    outlet
    {
        type patch;
        faces
        (
            (7 6 5 4)
        );
    }
    floor
    {
        type wall;
        faces
        (
            (0 4 8 11)
            (1 5 9 10)
        );
    }
    ceiling
    {
        type wall;
        faces
        (
            (1 5 6 2)
            (0 4 7 3)
        );
    }
    step
    {
        type wall;
        faces
        (
            (4 5 9 8)
        );
    }
    front
    {
        type empty;
        faces
        (
            (0 1 5 4)
            (0 1 2 3)
        );
    }
    back
    {
        type empty;
        faces
        (
            (11 10 9 8)
            (11 10 6 7)
        );
    }
);

mergePatchPairs
(
);