FoamFile
{
    version     2.0;
    format      ascii;
    class       dictionary;
    object      fvConstraints;
}

// * * * * * * * * * * * * * * * * * * * * * * * * * * * * * * * * * * * * * //

defaultConstraints
{
    // No default constraints required for rhoSimpleFoam steady state
}

// * * * * * * * * * * * * * * * * * * * * * * * * * * * * * * * * * * * * * //