FoamFile
{
    version     2.0;
    format      ascii;
    class       dictionary;
    object      controlDict;
}
// * * * * * * * * * * * * * * * * * * * * * * * * * * * * * * * * * * * * * //

application     rhoCentralFoam;

// Simulation start and end times
startFrom       startTime;
startTime       0;
stopAt          endTime;
endTime         0.2;
deltaT          0.0001;

// Write control settings
writeControl    timeStep;
writeInterval   200;
purgeWrite      0;
writeFormat     ascii;
writePrecision  6;
writeCompression off;
timeFormat      general;
timePrecision   6;
runTimeModifiable true;

// Time step adjustment
adjustTimeStep  no;
maxCo           0.5;

functions       {};

// ************************************************************************* //