FoamFile
{
    format      ascii;
    class       dictionary;
    location    "system";
    object      fvSchemes;
}

ddtSchemes
{
    default         Euler;
}

gradSchemes
{
    default         Gauss linear;
}
divSchemes
{
    default             Gauss linear;

    div(phi,U)          Gauss upwind;
    div(phid,p)         Gauss upwind;
    div(phi,K)          Gauss upwind;
    div(phi,e)          Gauss upwind;
    div(phi,k)          Gauss upwind;
    div(phi,epsilon)    Gauss upwind;
    div(phi,R)          Gauss upwind;
    div(R)              Gauss linear;
    div(phi,omega)      Gauss upwind;
    div(((rho*nuEff)*dev2(T(grad(U))))) Gauss linear;
    div(phi,K)          Gauss linear;

    // Explicitly define div(phi,(p|rho)) to prevent undefined references
    div(phi,(p|rho))    Gauss upwind;
}

laplacianSchemes
{
    default         Gauss linear corrected;
}

interpolationSchemes
{
    default         linear;
}

snGradSchemes
{
    default         corrected;
}