FoamFile
{
    format      ascii;
    class       dictionary;
    location    "system";
    object      fvSolution;
}


solvers
{
    h
    {
        solver          smoothSolver;
        smoother        symGaussSeidel;
        tolerance       1e-06;
        relTol          0.1;
    }

    hFinal
    {
        $h;
        tolerance       1e-06;
        relTol          0;
    }

    U
    {
        solver          smoothSolver;
        smoother        symGaussSeidel;
        tolerance       1e-06;
        relTol          0.1;
    }

    UFinal
    {
        $U;
        tolerance       1e-06;
        relTol          0;
    }
}

PIMPLE
{
    nNonOrthogonalCorrectors 0;

    residualControl
    {
        p_rgh           1e-2;
        p_rghFinal      1e-2;
        U               1e-4;
        UFinal          1e-4;
        h               1e-3;
        hFinal          1e-3;
    }
}