/*--------------------------------*- C++ -*----------------------------------*\
  =========                 |
  \\      /  F ield         | OpenFOAM: The Open Source CFD Toolbox
   \\    /   O peration     | Website:  https://openfoam.org
    \\  /    A nd           | Version:  10
     \\/     M anipulation  |
\*---------------------------------------------------------------------------*/
FoamFile
{
    format      ascii;
    class       polyBoundaryMesh;
    location    "constant/polyMesh";
    object      boundary;
}
// * * * * * * * * * * * * * * * * * * * * * * * * * * * * * * * * * * * * * //

6
(
    inlet
    {
        type            patch;
        nFaces          10;
        startFace       370;
    }
    outlet
    {
        type            patch;
        nFaces          10;
        startFace       380;
    }
    bottom
    {
        type            wall;
        inGroups        List<word> 1(wall);
        nFaces          20;
        startFace       390;
    }
    top
    {
        type            wall;
        inGroups        List<word> 1(wall);
        nFaces          20;
        startFace       410;
    }
    obstacle
    {
        type            wall;
        inGroups        List<word> 1(wall);
        nFaces          200;
        startFace       430;
    }
    frontAndBack
    {
        type            empty;
        inGroups        List<word> 1(empty);
        nFaces          200;
        startFace       630;
    }
)

// ************************************************************************* //
