/*--------------------------------*- C++ -*----------------------------------*\
  =========                 |
  \\      /  F ield         | OpenFOAM: The Open Source CFD Toolbox
   \\    /   O peration     | Website:  https://openfoam.org
    \\  /    A nd           | Version:  10
     \\/     M anipulation  |
\*---------------------------------------------------------------------------*/
FoamFile
{
    format      ascii;
    class       polyBoundaryMesh;
    location    "constant/polyMesh";
    object      boundary;
}
// * * * * * * * * * * * * * * * * * * * * * * * * * * * * * * * * * * * * * //

5
(
    inlet
    {
        type            patch;
        nFaces          20;
        startFace       3880;
    }
    outlet
    {
        type            patch;
        nFaces          20;
        startFace       3900;
    }
    top
    {
        type            patch;
        nFaces          100;
        startFace       3920;
    }
    bottom
    {
        type            patch;
        nFaces          100;
        startFace       4020;
    }
    frontAndBack
    {
        type            empty;
        inGroups        List<word> 1(empty);
        nFaces          4000;
        startFace       4120;
    }
)

// ************************************************************************* //
