FoamFile
{
    version     2.0;
    format      ascii;
    class       dictionary;
    object      fvSolution;
}
// * * * * * * * * * * * * * * * * * * * * * * * * * * * * * * * * * * * * * //

solvers
{
    p
    {
        solver          GAMG;
        tolerance       1e-06;
        relTol          0.01;
        smoother        GaussSeidel;
    }

    "(U|h|e|k|epsilon|omega)"
    {
        solver          smoothSolver;
        smoother        symGaussSeidel;
        tolerance       1e-06;
        relTol          0.1;
    }
}

SIMPLE
{
    nNonOrthogonalCorrectors 0;

    pMinFactor      0.1;
    pMaxFactor      1.5;

    residualControl
    {
        p               1e-4;
        U               1e-3;
        "(h|e)"         1e-4;
        "(k|epsilon|omega)" 1e-4;
    }
}

relaxationFactors
{
    equations
    {
        ".*"            1;
    }
}

// ************************************************************************* //