/*--------------------------------*- C++ -*----------------------------------*\
  =========                 |
  \\      /  F ield         | OpenFOAM: The Open Source CFD Toolbox
   \\    /   O peration     | Website:  https://openfoam.org
    \\  /    A nd           | Version:  10
     \\/     M anipulation  |
\*---------------------------------------------------------------------------*/
FoamFile
{
    format      ascii;
    class       polyBoundaryMesh;
    location    "constant/polyMesh";
    object      boundary;
}
// * * * * * * * * * * * * * * * * * * * * * * * * * * * * * * * * * * * * * //

5
(
    inlet
    {
        type            patch;
        nFaces          40;
        startFace       19560;
    }
    outlet
    {
        type            patch;
        nFaces          40;
        startFace       19600;
    }
    top
    {
        type            patch;
        nFaces          400;
        startFace       19640;
    }
    wedge
    {
        type            patch;
        nFaces          400;
        startFace       20040;
    }
    frontAndBack
    {
        type            empty;
        inGroups        List<word> 1(empty);
        nFaces          8000;
        startFace       20440;
    }
)

// ************************************************************************* //
