FoamFile
{
    version     2.0;
    format      ascii;
    class       dictionary;
    object      gravitationalProperties;
}
// * * * * * * * * * * * * * * * * * * * * * * * * * * * * * * * * * * * * * //

gravity
{
    g               (0 0 -9.81);
    gValue          uniform (0 0 -9.81);
}

// ************************************************************************* //