FoamFile
{
    format      ascii;
    class       volVectorField;
    object      U;
}


dimensions      [0 1 -1 0 0 0 0];

internalField   uniform (3.0 -0.50632 0);

boundaryField
{
    inlet
    {
        type            fixedValue;
        value           uniform (2.9 0 0);
    }

    outlet
    {
        type            zeroGradient;
    }

    top
    {
        type            fixedValue;
        value           uniform (3.0 -0.50632 0);
    }

    bottom
    {
        type            zeroGradient;
    }

    frontAndBack
    {
        type            empty;
    }
}