FoamFile
{
    version     2.0;
    format      ascii;
    class       dictionary;
    object      blockMeshDict;
}
// * * * * * * * * * * * * * * * * * * * * * * * * * * * * * * * * * * * * * //

convertToMeters 1;

vertices
(
    (0    0    0)
    (0.1  0    0)
    (0.1  0.2  0)
    (0    0.2  0)
    (0.1  0.2  0.1)
    (0.1  0    0.1)
    (0    0    0.1)
    (0    0.2  0.1)
    (0.2  0.1  0)
    (0.2  0.1  0.1)
);

blocks
(
    hex (0 1 2 3 6 5 4 7) (20 20 10) simpleGrading (1 1 1)
    hex (8 9 2 3 7 6 4 7) (10 10 10) simpleGrading (1 1 1)
);

edges
(
    arc (0 3) (0.05 0.1 0) 0.05;
    arc (1 2) (0.05 0.1 0) 0.05;
);

boundary
(
    inlet
    {
        type patch;
        faces
        (
            (0 3 7 6)
        );
    }

    outlet
    {
        type patch;
        faces
        (
            (1 2 4 5)
        );
    }

    walls
    {
        type wall;
        faces
        (
            (0 1 5 6)
            (2 3 7 4)
            (8 9 4 7)
            (8 9 3 2)
        );
    }

    cylinder
    {
        type wall;
        faces
        (
            (0 3 2 1)
        );
    }
);

mergePatchPairs
(
);
