FoamFile
{
    format      ascii;
    class       dictionary;
    location    "system";
    object      shallowWaterFoamDict;
}


relaxation 0.5;