FoamFile
{
    format      ascii;
    class       dictionary;
    location    "system";
    object      controlDict;
}


application     rhoCentralFoam;

startFrom       startTime;

startTime       0.0;

stopAt          endTime;

endTime         0.2;

deltaT          0.0001;

writeControl    adjustableRunTime;

writeInterval   0.02;

purgeWrite      0;

writeFormat     ascii;

writePrecision  6;

writeCompression off;

timeFormat      general;

timePrecision   6;

runTimeModifiable yes;

adjustTimeStep  yes;

maxCo           0.01;

maxDeltaT       1;