FoamFile
{
    format      ascii;
    class       dictionary;
    location    "system";
    object      fvSolution;
}


solvers
{
    p
    {
        solver          GAMG;
        tolerance       1e-07;
        relTol          0.05;
        smoother        GaussSeidel;
    };

    U
    {
        solver          smoothSolver;
        smoother        symGaussSeidel;
        tolerance       1e-06;
        relTol          0;
        minIter         1;
    }
}

relaxationFactors
{
    equations
    {
        " .* "            1;
    }
}