/*--------------------------------*- C++ -*----------------------------------*\
  =========                 |
  \\      /  F ield         | OpenFOAM: The Open Source CFD Toolbox
   \\    /   O peration     | Website:  https://openfoam.org
    \\  /    A nd           | Version:  10
     \\/     M anipulation  |
\*---------------------------------------------------------------------------*/
FoamFile
{
    format      binary;
    class       polyBoundaryMesh;
    location    "constant/polyMesh";
    object      boundary;
}
// * * * * * * * * * * * * * * * * * * * * * * * * * * * * * * * * * * * * * //

3
(
    hotWall
    {
        type            wall;
        inGroups        List<word> 1(wall);
        nFaces          2000;
        startFace       56800;
    }
    coldWall
    {
        type            wall;
        inGroups        List<word> 1(wall);
        nFaces          2400;
        startFace       58800;
    }
    defaultFaces
    {
        type            empty;
        inGroups        List<word> 1(empty);
        nFaces          2000;
        startFace       61200;
    }
)

// ************************************************************************* //
