/*--------------------------------*- C++ -*----------------------------------*\
  =========                 |
  \\      /  F ield         | OpenFOAM: The Open Source CFD Toolbox
   \\    /   O peration     | Website:  https://openfoam.org
    \\  /    A nd           | Version:  10
     \\/     M anipulation  |
\*---------------------------------------------------------------------------*/
FoamFile
{
    format      binary;
    class       polyBoundaryMesh;
    location    "constant/polyMesh";
    object      boundary;
}
// * * * * * * * * * * * * * * * * * * * * * * * * * * * * * * * * * * * * * //

4
(
    frontAndBack
    {
        type            patch;
        nFaces          144;
        startFace       316;
    }
    inlet
    {
        type            patch;
        nFaces          8;
        startFace       460;
    }
    outlet
    {
        type            patch;
        nFaces          8;
        startFace       468;
    }
    walls
    {
        type            wall;
        inGroups        List<word> 1(wall);
        nFaces          72;
        startFace       476;
    }
)

// ************************************************************************* //
