FoamFile
{
    format      ascii;
    class       dictionary;
    object      blockMeshDict;
}


convertToMeters 1;

vertices
(
    (0 0 -0.5)
    (3 0 -0.5)
    (3 1 -0.5)
    (0 1 -0.5)
    (0 0 0.5)
    (3 0 0.5)
    (3 1 0.5)
    (0 1 0.5)
);

blocks
(
    hex (0 1 2 3 4 5 6 7) (20 10 1) simpleGrading (1 1 1)
);

boundary
(
    inlet
    {
        type patch;
        faces
        (
            (0 4 7 3)
        );
    }

    outlet
    {
        type patch;
        faces
        (
            (1 2 6 5)
        );
    }

    bottom
    {
        type wall;
        faces
        (
            (0 1 5 4)
        );
    }

    top
    {
        type wall;
        faces
        (
            (3 7 6 2)
        );
    }

    obstacle
    {
        type wall;
        faces
        (
            (4 7 6 5)
        );
    }

    defaultFaces
    {
        type empty;
        faces ();
    }
);