FoamFile
{
    version     2.0;
    format      ascii;
    class       dictionary;
    object      physicalProperties;
}
// * * * * * * * * * * * * * * * * * * * * * * * * * * * * * * * * * * * * * //

thermoType      perfectGas;

molWeight       11640.3;
Cp              2.5;
Pr              1.0;
R               0.7143;
gamma           1.4;
mu              0.0;

rhoInf          1.0;
psi             1.0;

// ************************************************************************* //