FoamFile
{
    version     2.0;
    format      ascii;
    class       dictionary;
    object      physicalProperties;
}
// * * * * * * * * * * * * * * * * * * * * * * * * * * * * * * * * * * * * * //

thermoType
{
    type            hePsiThermo;
    molecule        air;
    energy          sensibleInternalEnergy;
    specie          {
        nMoles      1;
        molWeight   28.97;
    }
}

rhoInf          1.0;
psi             1.0;
mu              0.001;
gamma           1.4;
Cp              1000.0;
T0              1.0;

// ************************************************************************* //