FoamFile
{
    version     2.0;
    format      ascii;
    class       dictionary;
    object      physicalProperties;
}
// * * * * * * * * * * * * * * * * * * * * * * * * * * * * * * * * * * * * * //

phase1
{
    name        water;
    rho         1000;
    viscosityModel  Newtonian;
    nu          1e-6;
}

phase2
{
    name        air;
    rho         1;
    viscosityModel  Newtonian;
    nu          1.48e-5;
}

// ************************************************************************* //