FoamFile
{
    format      ascii;
    class       dictionary;
    object      blockMeshDict;
}


convertToMeters 1;

vertices
(
    (0 0 -0.05)
    (4.1 0 -0.05)
    (4.1 1 -0.05)
    (0 1 -0.05)
    (0 0 0.05)
    (4.1 0 0.05)
    (4.1 1 0.05)
    (0 1 0.05)
);

blocks
(
    hex (0 1 2 3 4 5 6 7) (41 10 1) simpleGrading (1 1 1)
);

defaultPatch
{
    type empty;
}

boundary
(
    inlet
    {
        type patch;
        faces
        (
            (0 4 7 3)
        );
    }

    top
    {
        type patch;
        faces
        (
            (3 7 6 2)
        );
    }

    outlet
    {
        type patch;
        faces
        (
            (2 6 5 1)
        );
    }

    bottom
    {
        type patch;
        faces
        (
            (1 5 4 0)
        );
    }
);