FoamFile
{
    format      ascii;
    class       dictionary;
    location    "system";
    object      setFieldsDict;
}

defaultFieldValues
(
    volScalarField T uniform 1.0
    volVectorField U uniform (3.5 0 0)
    volScalarField p uniform 1.0
);

regions
(
    boxToCell
    (
        (0 0 -0.05)
        (4.1 1 0.05)
    )
    {
        value uniform 1.0;
    }
);