FoamFile
{
    format      ascii;
    class       volScalarField;
    location    "0";
    object      N2;
}


dimensions      [0 0 0 0 0 0 0];

internalField   uniform 1;

boundaryField
{
    fuel
    {
        type            fixedValue;
        value           uniform 0.4;
    }
    air
    {
        type            fixedValue;
        value           uniform 1;
    }
    outlet
    {
        type            inletOutlet;
        inletValue      uniform 1;
        value           uniform 1;

    }
}