FoamFile
{
    format      ascii;
    class       volScalarField;
    location    "0";
    object      Ydefault;
}


dimensions      [0 0 0 0 0 0 0];

internalField   uniform 0;

boundaryField
{
    fuel
    {
        type            fixedValue;
        value           uniform 0;
    }
    air
    {
        type            fixedValue;
        value           uniform 0;
    }
    outlet
    {
        type            inletOutlet;
        inletValue      uniform 0;
        value           uniform 0;


    }
}