FoamFile
{
    version     2.0;
    format      ascii;
    class       dictionary;
    object      fvSolution;
}
// * * * * * * * * * * * * * * * * * * * * * * * * * * * * * * * * * * * * * //

solvers
{
    rho
    {
        solver          PCG;
        preconditioner  DIC;
        tolerance       1e-06;
        relTol          0.1;
    }

    "(U|k|epsilon|h|e|R|UFinal|hFinal)"
    {
        solver          smoothSolver;
        smoother        symGaussSeidel;
        nSweeps         2;
        tolerance       1e-06;
        relTol          0.1;
    }

    U
    {
        solver          PBiCGStab;
        preconditioner  DILU;
        tolerance       1e-06;
        relTol          0.1;
    }

    h
    {
        $U;
        tolerance       1e-06;
        relTol          0.1;
    }

    e
    {
        $U;
        tolerance       1e-06;
        relTol          0.1;
    }

    hFinal
    {
        solver          PBiCGStab;
        preconditioner  DILU;
        tolerance       1e-06;
        relTol          0.1;
    }

    UFinal
    {
        solver          PBiCGStab;
        preconditioner  DILU;
        tolerance       1e-06;
        relTol          0.1;
    }

    rhoFinal
    {
        solver          PCG;
        preconditioner  DIC;
        tolerance       1e-06;
        relTol          0.1;
    }

    p_rgh
    {
        solver          PCG;
        preconditioner  DIC;
        tolerance       1e-06;
        relTol          0.1;
    }

    p_rghFinal
    {
        solver          PCG;
        preconditioner  DIC;
        tolerance       1e-06;
        relTol          0.1;
    }
}

PIMPLE
{
    momentumPredictor   yes;
    nOuterCorrectors    1;
    nCorrectors         2;
    nNonOrthogonalCorrectors 0;
}

relaxationFactors
{
    fields
    {
        p_rgh           0.3;
        rho             0.01;
    }
    equations
    {
        ".*"            1;
    }
}

// ************************************************************************* //