FoamFile
{
    format      ascii;
    class       dictionary;
    location    "system";
    object      setFieldsDict;
}


defaultFieldValues
(
    volScalarFieldValue h 0.02
    volVectorFieldValue U (0.001 0 0)
);

regions
(
    boxToCell
    {
        box (-1 -1 -1) (1 1 1);
        fieldValues
        (
            volScalarFieldValue h 0.02
        );
    }
);