FoamFile
{
    version     2.0;
    format      ascii;
    class       dictionary;
    object      transportProperties;
}

// * * * * * * * * * * * * * * * * * * * * * * * * * * * * * * * * * * * * * //

transportModel  Cross;

nuInf           nuInf [0 2 -1 0 0 0 0] 10;
m               m [0 0 0 0 0 0 0] 0.4;
n               n [0 0 0 0 0 0 0] 3;

// * * * * * * * * * * * * * * * * * * * * * * * * * * * * * * * * * * * * * //