FoamFile
{
    format      ascii;
    class       dictionary;
    location    "system";
    object      fvSchemes;
}


ddtSchemes
{
    default         Euler;
}

gradSchemes
{
    default         Gauss linear;
}

divSchemes
{
    default             none;

    div(phi,U)          Gauss linearUpwind;
    div(phid,p)         Gauss linearUpwind;
    div(phi,K)          Gauss linearUpwind;
    div(phi,e)          Gauss linearUpwind;
    div(phi,k)          Gauss upwind;
    div(phi,epsilon)    Gauss upwind;
    div(phi,R)          Gauss upwind;
    div(phi,omega)      Gauss upwind;
    div((rho*R))        Gauss linear;
    div(R)              Gauss linear;
    div(U)              Gauss linear;
    div(((rho*nuEff)*dev2(T(grad(U))))) Gauss linear;
}

laplacianSchemes
{
    default         Gauss linear corrected;
}

interpolationSchemes
{
    default         linear;
}

snGradSchemes
{
    default         corrected;
}