/*--------------------------------*- C++ -*----------------------------------*\
  =========                 |
  \\      /  F ield         | OpenFOAM: The Open Source CFD Toolbox
   \\    /   O peration     | Website:  https://openfoam.org
    \\  /    A nd           | Version:  10
     \\/     M anipulation  |
\*---------------------------------------------------------------------------*/
FoamFile
{
    format      binary;
    class       polyBoundaryMesh;
    location    "constant/polyMesh";
    object      boundary;
}
// * * * * * * * * * * * * * * * * * * * * * * * * * * * * * * * * * * * * * //

5
(
    left
    {
        type            patch;
        nFaces          40;
        startFace       6280;
    }
    right
    {
        type            patch;
        nFaces          40;
        startFace       6320;
    }
    down
    {
        type            wall;
        inGroups        List<word> 1(wall);
        nFaces          3200;
        startFace       6360;
    }
    up
    {
        type            wall;
        inGroups        List<word> 1(wall);
        nFaces          3200;
        startFace       9560;
    }
    defaultFaces
    {
        type            empty;
        inGroups        List<word> 1(empty);
        nFaces          160;
        startFace       12760;
    }
)

// ************************************************************************* //
