FoamFile
{
    version     2.0;
    format      ascii;
    class       dictionary;
    object      transportProperties;
}
// * * * * * * * * * * * * * * * * * * * * * * * * * * * * * * * * * * * * * //

dynamicMesh   yes;

// Transport properties for air
air
{
    rho     1;
    nu      0.0001;
}

// Transport properties for water
water
{
    rho     1000;
    nu      0.001;
}

// ************************************************************************* //