FoamFile
{
    version     2.0;
    format      ascii;
    class       dictionary;
    object      physicalProperties;
}
// * * * * * * * * * * * * * * * * * * * * * * * * * * * * * * * * * * * * * //

rhoInf          1.0;
rho0            1.0;
p0              1.0;
T0              1.0;
molWeight       11640.3;
Cp              2.5;
Pr              1.0;
mu              0.0;
R               0.7143;
gamma           1.4;

// ************************************************************************* //