FoamFile
{
    format      ascii;
    class       volScalarField;
    location    "0";
    object      alpha.water;
}


dimensions      [0 0 0 0 0 0 0];

internalField   uniform 0;

boundaryField
{
    obstacle
    {
        type            zeroGradient;
    }
    defaultFaces
    {
        type            empty;
    }
}